data_crystal

_audit_creation_method 'AiiDA-DDEC plugin'

_cell_length_a        19.02844
_cell_length_b        19.02859
_cell_length_c        37.06548

_cell_angle_alpha     89.99955
_cell_angle_beta     90.00000
_cell_angle_gamma     89.99954

_symmetry_space_group_name_Hall 'P 1'
_symmetry_space_group_name_H-M  'P 1'

loop_
_symmetry_equiv_pos_as_xyz
 'x,y,z'

loop_
_atom_site_label
_atom_site_type_symbol
_atom_site_fract_x
_atom_site_fract_y
_atom_site_fract_z
_atom_site_charge
Al         Al      0.87275   0.09512   0.07884   1.61696
Al         Al      0.12725   0.90489   0.07884   1.61731
Al         Al      0.40492   0.37273   0.57884   1.61720
Al         Al      0.59512   0.62726   0.57884   1.61722
Al         Al      0.62725   0.59510   0.42117   1.61738
Al         Al      0.37276   0.40489   0.42117   1.61716
Al         Al      0.09507   0.87278   0.92116   1.61818
Al         Al      0.90494   0.12724   0.92117   1.61814
Al         Al      0.83585   0.16415   0.00000   1.60945
Al         Al      0.16416   0.83585   0.00000   1.60988
Al         Al      0.33584   0.33582   0.50000   1.61012
Al         Al      0.66418   0.66419   0.50000   1.60969
Al         Al     -0.00001  -0.00002   0.11345   1.62372
Al         Al      0.50001   0.50001   0.61342   1.62338
Al         Al      0.50000   0.50001   0.38655   1.62365
Al         Al     -0.00000   0.00000   0.88652   1.62323
H          H       0.78910   0.36206   0.04276   0.13026
H          H       0.58064   0.48969   0.28332   0.12908
H          H       0.79800   0.23894   0.13961   0.12399
H          H       0.80091   0.34842   0.17660   0.11305
H          H       0.75393   0.60103   0.33039   0.13146
H          H       0.86863   0.53882   0.11577   0.11799
H          H       0.79198   0.47233   0.07942   0.11461
H          H       0.87244   0.84304   0.14459   0.13054
H          H       0.64050   0.49149   0.22344   0.11379
H          H       0.80491   0.73840   0.16594   0.11625
H          H       0.04091   0.70900   0.11009   0.11969
H          H       0.81475   0.60288   0.27072   0.11623
H          H       0.81038   0.65172   0.21185   0.11693
H          H       0.73513   0.44117   0.19489   0.11451
H          H       0.71274   0.01115   0.03080   0.04449
H          H       0.97371   0.60363   0.13078   0.11362
H          H       0.21090   0.63793   0.04276   0.13021
H          H       0.41936   0.51032   0.28332   0.12921
H          H       0.20200   0.76106   0.13961   0.12404
H          H       0.19909   0.65159   0.17660   0.11310
H          H       0.24607   0.39897   0.33039   0.13146
H          H       0.13136   0.46119   0.11577   0.11790
H          H       0.20803   0.52767   0.07943   0.11445
H          H       0.12754   0.15695   0.14459   0.13037
H          H       0.35950   0.50851   0.22344   0.11385
H          H       0.19509   0.26158   0.16593   0.11636
H          H       0.95908   0.29100   0.11009   0.11972
H          H       0.18525   0.39712   0.27072   0.11612
H          H       0.18962   0.34828   0.21185   0.11694
H          H       0.26486   0.55883   0.19489   0.11453
H          H       0.28729   0.98884   0.03082   0.04455
H          H       0.02628   0.39636   0.13078   0.11146
H          H       0.13793   0.28909   0.54276   0.13012
H          H       0.01032   0.08065   0.78334   0.12932
H          H       0.26106   0.29799   0.63961   0.12406
H          H       0.15159   0.30091   0.67660   0.11316
H          H       0.89897   0.25394   0.83040   0.13161
H          H       0.96120   0.36866   0.61578   0.11536
H          H       0.02767   0.29197   0.57943   0.11437
H          H       0.65695   0.37241   0.64459   0.13376
H          H       0.00851   0.14049   0.72345   0.11374
H          H       0.76160   0.30490   0.66594   0.11396
H          H       0.79096   0.54090   0.61009   0.12284
H          H       0.89712   0.31475   0.77072   0.11611
H          H       0.84828   0.31038   0.71185   0.11682
H          H       0.05883   0.23512   0.69489   0.11467
H          H       0.48886   0.21271   0.53081   0.04462
H          H       0.89634   0.47372   0.63078   0.11157
H          H       0.86208   0.71091   0.54276   0.13008
H          H       0.98969   0.91935   0.78332   0.12935
H          H       0.73895   0.70202   0.63961   0.12398
H          H       0.84841   0.69909   0.67660   0.11318
H          H       0.10103   0.74609   0.83040   0.13155
H          H       0.03881   0.63135   0.61578   0.11780
H          H       0.97234   0.70803   0.57943   0.11455
H          H       0.34305   0.62759   0.64459   0.13394
H          H       0.99149   0.85949   0.72343   0.11380
H          H       0.23840   0.69509   0.66594   0.11629
H          H       0.20905   0.45910   0.61009   0.12266
H          H       0.10289   0.68525   0.77073   0.11609
H          H       0.15173   0.68962   0.71185   0.11704
H          H       0.94118   0.76488   0.69489   0.11448
H          H       0.51114   0.78726   0.53080   0.04451
H          H       0.10367   0.52627   0.63077   0.11128
H          H       0.71090   0.86207   0.45724   0.13028
H          H       0.91936   0.98966   0.21668   0.12913
H          H       0.70200   0.73895   0.36039   0.12384
H          H       0.69909   0.84842   0.32340   0.11302
H          H       0.74609   0.10101   0.16961   0.13144
H          H       0.63135   0.03881   0.38422   0.11796
H          H       0.70804   0.97233   0.42057   0.11460
H          H       0.62758   0.34306   0.35541   0.13387
H          H       0.85951   0.99150   0.27657   0.11397
H          H       0.69510   0.23841   0.33406   0.11626
H          H       0.45910   0.20904   0.38991   0.12284
H          H       0.68527   0.10289   0.22928   0.11612
H          H       0.68963   0.15173   0.28815   0.11677
H          H       0.76488   0.94118   0.30512   0.11447
H          H       0.78727   0.51114   0.46919   0.04473
H          H       0.52628   0.10367   0.36923   0.11136
H          H       0.28910   0.13793   0.45724   0.13024
H          H       0.08065   0.01032   0.21668   0.12925
H          H       0.29800   0.26105   0.36039   0.12395
H          H       0.30091   0.15158   0.32340   0.11293
H          H       0.25392   0.89898   0.16961   0.13137
H          H       0.36866   0.96119   0.38422   0.11803
H          H       0.29197   0.02767   0.42057   0.11455
H          H       0.37243   0.65696   0.35541   0.13379
H          H       0.14051   0.00851   0.27657   0.11388
H          H       0.30491   0.76160   0.33406   0.11617
H          H       0.54091   0.79098   0.38991   0.12277
H          H       0.31475   0.89712   0.22928   0.11607
H          H       0.31038   0.84827   0.28815   0.11678
H          H       0.23512   0.05882   0.30512   0.11447
H          H       0.21274   0.48886   0.46920   0.04461
H          H       0.47372   0.89635   0.36922   0.11148
H          H       0.36205   0.78910   0.95724   0.13042
H          H       0.48970   0.58065   0.71667   0.12904
H          H       0.23894   0.79800   0.86039   0.12365
H          H       0.34841   0.80090   0.82340   0.11264
H          H       0.60104   0.75394   0.66962   0.13131
H          H       0.53882   0.86865   0.88423   0.11562
H          H       0.47231   0.79197   0.92058   0.11460
H          H       0.84305   0.87246   0.85541   0.13046
H          H       0.49149   0.64050   0.77655   0.11376
H          H       0.73842   0.80493   0.83407   0.11622
H          H       0.70901   0.04092   0.88992   0.11984
H          H       0.60289   0.81476   0.72929   0.11630
H          H       0.65173   0.81039   0.78816   0.11693
H          H       0.44118   0.73514   0.80512   0.11428
H          H       0.01116   0.71271   0.96917   0.04471
H          H       0.60364   0.97373   0.86923   0.11140
H          H       0.63797   0.21090   0.95725   0.13039
H          H       0.51029   0.41936   0.71666   0.12927
H          H       0.76108   0.20202   0.86039   0.12389
H          H       0.65160   0.19910   0.82340   0.11269
H          H       0.39896   0.24605   0.66962   0.13112
H          H       0.46119   0.13136   0.88423   0.11811
H          H       0.52770   0.20803   0.92058   0.11416
H          H       0.15696   0.12756   0.85541   0.13372
H          H       0.50851   0.35951   0.77655   0.11401
H          H       0.26160   0.19509   0.83407   0.11633
H          H       0.29100   0.95909   0.88991   0.11963
H          H       0.39712   0.18524   0.72929   0.11599
H          H       0.34828   0.18962   0.78816   0.11663
H          H       0.55884   0.26487   0.80512   0.11470
H          H       0.98887   0.28727   0.96920   0.04501
H          H       0.39636   0.02629   0.86922   0.11385
C          C       0.96041   0.78207   0.12600  -0.02913
C          C      -0.00005   0.84576   0.11389   0.61796
C          C       0.79279   0.29421   0.08915  -0.04012
C          C       0.62677   0.54347   0.34595   0.60288
C          C       0.79107   0.36007   0.07207  -0.08115
C          C       0.66373   0.54513   0.31030  -0.04211
C          C       0.79874   0.22819   0.06766   0.61463
C          C       0.63189   0.51421   0.28006  -0.09204
C          C       0.79531   0.29042   0.12696  -0.08177
C          C       0.79698   0.35164   0.14738  -0.14341
C          C       0.72951   0.57781   0.30668  -0.09181
C          C       0.84055   0.54082   0.14133  -0.18403
C          C       0.79351   0.42130   0.09265  -0.14354
C          C       0.89401   0.79034   0.14212  -0.08253
C          C       0.66579   0.51508   0.24681  -0.14427
C          C       0.85688   0.73197   0.15414  -0.14249
C          C       0.73191   0.54748   0.24281   0.07240
C          C       0.84407   0.60215   0.16240   0.07955
C          C       0.79689   0.41806   0.13058   0.07363
C          C       0.80101   0.48260   0.15262   0.07319
C          C       0.98900   0.71444   0.12209  -0.08142
C          C       0.76301   0.57903   0.27325  -0.14356
C          C       0.80770   0.60437   0.19545  -0.18281
C          C       0.76549   0.48625   0.18581  -0.17317
C          C       0.75645   0.04863   0.03442   0.52449
C          C       0.76859   0.54653   0.20762   0.07373
C          C       0.88464   0.66371   0.14995   0.07582
C          C       0.95114   0.65591   0.13360  -0.14314
C          C       0.03958   0.21791   0.12600  -0.02952
C          C       0.00004   0.15421   0.11390   0.61820
C          C       0.20720   0.70580   0.08914  -0.04025
C          C       0.37322   0.45655   0.34596   0.60312
C          C       0.20893   0.63993   0.07207  -0.08090
C          C       0.33627   0.45489   0.31031  -0.04181
C          C       0.20125   0.77182   0.06766   0.61475
C          C       0.36812   0.48580   0.28007  -0.09211
C          C       0.20469   0.70958   0.12695  -0.08165
C          C       0.20301   0.64836   0.14738  -0.14363
C          C       0.27049   0.42220   0.30668  -0.09215
C          C       0.15944   0.45918   0.14133  -0.18382
C          C       0.20649   0.57871   0.09264  -0.14369
C          C       0.10598   0.20965   0.14212  -0.08240
C          C       0.33421   0.48492   0.24681  -0.14420
C          C       0.14311   0.26802   0.15413  -0.14263
C          C       0.26809   0.45251   0.24281   0.07238
C          C       0.15593   0.39785   0.16240   0.07950
C          C       0.20311   0.58194   0.13058   0.07369
C          C       0.19899   0.51740   0.15262   0.07318
C          C       0.01098   0.28554   0.12209  -0.08114
C          C       0.23699   0.42097   0.27325  -0.14361
C          C       0.19230   0.39563   0.19545  -0.18302
C          C       0.23450   0.51375   0.18581  -0.17303
C          C       0.24356   0.95137   0.03443   0.52458
C          C       0.23141   0.45347   0.20762   0.07378
C          C       0.11535   0.33628   0.14995   0.07597
C          C       0.04885   0.34408   0.13360  -0.14110
C          C       0.71790   0.46040   0.62600  -0.02908
C          C       0.65420   0.49993   0.61389   0.61709
C          C       0.20579   0.29280   0.58914  -0.04025
C          C       0.95656   0.12679   0.84596   0.60320
C          C       0.13993   0.29107   0.57207  -0.08121
C          C       0.95489   0.16375   0.81031  -0.04181
C          C       0.27182   0.29875   0.56766   0.61456
C          C       0.98579   0.13189   0.78007  -0.09212
C          C       0.20958   0.29530   0.62695  -0.08145
C          C       0.14836   0.29698   0.64738  -0.14360
C          C       0.92220   0.22952   0.80668  -0.09236
C          C       0.95918   0.34056   0.64133  -0.18193
C          C       0.07870   0.29350   0.59265  -0.14343
C          C       0.70965   0.39399   0.64212  -0.08524
C          C       0.98492   0.16579   0.74682  -0.14419
C          C       0.76803   0.35687   0.65414  -0.14107
C          C       0.95252   0.23191   0.74281   0.07240
C          C       0.89785   0.34407   0.66241   0.07965
C          C       0.08194   0.29689   0.63058   0.07368
C          C       0.01740   0.30102   0.65263   0.07324
C          C       0.78552   0.48899   0.62209  -0.08394
C          C       0.92097   0.26301   0.77326  -0.14341
C          C       0.89563   0.30770   0.69545  -0.18273
C          C       0.01375   0.26549   0.68581  -0.17302
C          C       0.45138   0.25643   0.53442   0.52462
C          C       0.95347   0.26859   0.70763   0.07373
C          C       0.83628   0.38464   0.64995   0.07620
C          C       0.84407   0.45114   0.63360  -0.14101
C          C       0.28211   0.53961   0.62600  -0.02926
C          C       0.34581   0.50008   0.61388   0.61703
C          C       0.79422   0.70721   0.58914  -0.04027
C          C       0.04343   0.87325   0.84593   0.60351
C          C       0.86009   0.70894   0.57207  -0.08099
C          C       0.04512   0.83626   0.81029  -0.04200
C          C       0.72821   0.70126   0.56766   0.61469
C          C       0.01421   0.86811   0.78005  -0.09227
C          C       0.79043   0.70470   0.62695  -0.08158
C          C       0.85165   0.70302   0.64738  -0.14370
C          C       0.07780   0.77049   0.80668  -0.09214
C          C       0.04082   0.65944   0.64133  -0.18382
C          C       0.92131   0.70650   0.59265  -0.14360
C          C       0.29036   0.60601   0.64212  -0.08527
C          C       0.01509   0.83420   0.74680  -0.14383
C          C       0.23198   0.64312   0.65414  -0.14247
C          C       0.04749   0.76808   0.74281   0.07205
C          C       0.10215   0.65592   0.66240   0.07944
C          C       0.91807   0.70311   0.63058   0.07385
C          C       0.98260   0.69898   0.65263   0.07303
C          C       0.21449   0.51101   0.62208  -0.08396
C          C       0.07904   0.73699   0.77326  -0.14345
C          C       0.10437   0.69229   0.69545  -0.18285
C          C       0.98625   0.73451   0.68581  -0.17303
C          C       0.54863   0.74356   0.53442   0.52473
C          C       0.04653   0.73140   0.70763   0.07389
C          C       0.16372   0.61535   0.64995   0.07590
C          C       0.15594   0.54886   0.63359  -0.14119
C          C       0.53960   0.28211   0.37400  -0.02907
C          C       0.50007   0.34580   0.38611   0.61716
C          C       0.70720   0.79421   0.41086  -0.04046
C          C       0.87320   0.04342   0.15403   0.60345
C          C       0.70893   0.86007   0.42793  -0.08097
C          C       0.83627   0.04508   0.18969  -0.04185
C          C       0.70125   0.72818   0.43234   0.61484
C          C       0.86812   0.01419   0.21994  -0.09196
C          C       0.70469   0.79043   0.37305  -0.08171
C          C       0.70302   0.85165   0.35262  -0.14377
C          C       0.77050   0.07779   0.19332  -0.09234
C          C       0.65944   0.04082   0.35867  -0.18381
C          C       0.70650   0.92130   0.40735  -0.14341
C          C       0.60601   0.29036   0.35788  -0.08527
C          C       0.83422   0.01509   0.25319  -0.14432
C          C       0.64313   0.23198   0.34586  -0.14262
C          C       0.76810   0.04749   0.25719   0.07239
C          C       0.65593   0.10216   0.33760   0.07934
C          C       0.70311   0.91807   0.36942   0.07360
C          C       0.69898   0.98261   0.34737   0.07338
C          C       0.51101   0.21448   0.37792  -0.08415
C          C       0.73701   0.07903   0.22675  -0.14350
C          C       0.69230   0.10438   0.30455  -0.18274
C          C       0.73451   0.98626   0.31419  -0.17323
C          C       0.74356   0.54863   0.46557   0.52434
C          C       0.73141   0.04654   0.29238   0.07390
C          C       0.61536   0.16373   0.35005   0.07615
C          C       0.54886   0.15594   0.36640  -0.14119
C          C       0.46040   0.71791   0.37400  -0.02949
C          C       0.49994   0.65422   0.38612   0.61732
C          C       0.29280   0.20579   0.41086  -0.04017
C          C       0.12677   0.95655   0.15405   0.60276
C          C       0.29107   0.13993   0.42793  -0.08098
C          C       0.16373   0.95489   0.18970  -0.04170
C          C       0.29875   0.27181   0.43234   0.61449
C          C       0.13189   0.98579   0.21994  -0.09236
C          C       0.29531   0.20957   0.37305  -0.08181
C          C       0.29699   0.14836   0.35262  -0.14350
C          C       0.22951   0.92220   0.19332  -0.09231
C          C       0.34056   0.95918   0.35867  -0.18368
C          C       0.29350   0.07870   0.40735  -0.14357
C          C       0.39400   0.70965   0.35788  -0.08526
C          C       0.16579   0.98492   0.25320  -0.14391
C          C       0.35688   0.76803   0.34586  -0.14265
C          C       0.23192   0.95251   0.25719   0.07223
C          C       0.34407   0.89785   0.33760   0.07935
C          C       0.29689   0.08194   0.36942   0.07357
C          C       0.30102   0.01740   0.34737   0.07321
C          C       0.48900   0.78554   0.37792  -0.08361
C          C       0.26301   0.92097   0.22675  -0.14344
C          C       0.30771   0.89563   0.30455  -0.18302
C          C       0.26549   0.01374   0.31419  -0.17302
C          C       0.25645   0.45137   0.46558   0.52455
C          C       0.26860   0.95347   0.29238   0.07384
C          C       0.38465   0.83628   0.35005   0.07609
C          C       0.45114   0.84408   0.36641  -0.14117
C          C       0.78208   0.96043   0.87401  -0.02916
C          C       0.84578  -0.00006   0.88613   0.61719
C          C       0.29418   0.79281   0.91086  -0.03692
C          C       0.54352   0.62679   0.65402   0.60362
C          C       0.36005   0.79108   0.92793  -0.08203
C          C       0.54516   0.66373   0.68969  -0.04170
C          C       0.22815   0.79877   0.93235   0.61375
C          C       0.51423   0.63189   0.71993  -0.09228
C          C       0.29041   0.79531   0.87305  -0.08266
C          C       0.35164   0.79699   0.85263  -0.14362
C          C       0.57781   0.72952   0.69333  -0.09231
C          C       0.54082   0.84056   0.85868  -0.18185
C          C       0.42128   0.79351   0.90736  -0.14341
C          C       0.79035   0.89403   0.85789  -0.08242
C          C       0.51509   0.66579   0.75319  -0.14400
C          C       0.73198   0.85690   0.84587  -0.14276
C          C       0.54749   0.73191   0.75720   0.07216
C          C       0.60216   0.84408   0.83760   0.07961
C          C       0.41806   0.79690   0.86943   0.07360
C          C       0.48260   0.80102   0.84738   0.07333
C          C       0.71445   0.98902   0.87792  -0.08108
C          C       0.57903   0.76302   0.72675  -0.14331
C          C       0.60438   0.80771   0.80456  -0.18302
C          C       0.48625   0.76550   0.81420  -0.17315
C          C       0.04864   0.75643   0.96557   0.52394
C          C       0.54654   0.76859   0.79238   0.07386
C          C       0.66372   0.88466   0.85006   0.07608
C          C       0.65592   0.95116   0.86641  -0.14103
C          C       0.21792   0.03959   0.87401  -0.02944
C          C       0.15422   0.00006   0.88612   0.61778
C          C       0.70582   0.20720   0.91086  -0.03685
C          C       0.45648   0.37322   0.65402   0.60345
C          C       0.63996   0.20893   0.92793  -0.08217
C          C       0.45485   0.33627   0.68968  -0.04179
C          C       0.77185   0.20123   0.93235   0.61352
C          C       0.48577   0.36812   0.71992  -0.09194
C          C       0.70960   0.20469   0.87305  -0.08250
C          C       0.64838   0.20302   0.85263  -0.14364
C          C       0.42219   0.27048   0.69332  -0.09228
C          C       0.45919   0.15945   0.85868  -0.18406
C          C       0.57873   0.20650   0.90736  -0.14340
C          C       0.20966   0.10599   0.85788  -0.08517
C          C       0.48491   0.33422   0.75318  -0.14407
C          C       0.26803   0.14312   0.84587  -0.14277
C          C       0.45252   0.26809   0.75720   0.07208
C          C       0.39786   0.15593   0.83760   0.07960
C          C       0.58196   0.20311   0.86943   0.07362
C          C       0.51741   0.19899   0.84738   0.07316
C          C       0.28555   0.01100   0.87792  -0.08118
C          C       0.42097   0.23698   0.72675  -0.14330
C          C       0.39564   0.19230   0.80456  -0.18290
C          C       0.51376   0.23451   0.81420  -0.17299
C          C       0.95138   0.24357   0.96558   0.52446
C          C       0.45347   0.23142   0.79238   0.07359
C          C       0.33629   0.11536   0.85005   0.07578
C          C       0.34409   0.04886   0.86641  -0.14308
O          O       0.80539   0.17125   0.08554  -0.56176
O          O       0.06197   0.83684   0.10154  -0.56883
O          O       0.79520   0.03757   0.06164  -0.51027
O          O       0.93094   0.02078   0.08199  -0.76698
O          O       0.89292   0.13044   0.03484  -0.76821
O          O       0.65985   0.56937   0.37272  -0.51830
O          O       0.56535   0.51730   0.34607  -0.54085
O          O       0.79832   0.23327   0.03345  -0.54532
O          O       0.96835   0.90410   0.11819  -0.56414
O          O       0.76032   0.09715   0.01107  -0.52136
O          O       0.19460   0.82876   0.08554  -0.56202
O          O       0.93803   0.16315   0.10155  -0.56857
O          O       0.20481   0.96243   0.06164  -0.51009
O          O       0.06907   0.97924   0.08200  -0.76710
O          O       0.10710   0.86968   0.03482  -0.76825
O          O       0.34014   0.43063   0.37272  -0.51872
O          O       0.43463   0.48272   0.34610  -0.54087
O          O       0.20167   0.76673   0.03344  -0.54555
O          O       0.03163   0.09586   0.11821  -0.56435
O          O       0.23969   0.90283   0.01107  -0.52131
O          O       0.32875   0.30541   0.58553  -0.56199
O          O       0.66314   0.56195   0.60155  -0.56839
O          O       0.46246   0.29519   0.56163  -0.50959
O          O       0.47924   0.43092   0.58201  -0.76719
O          O       0.36991   0.39287   0.53479  -0.76818
O          O       0.93064   0.15986   0.87272  -0.51864
O          O       0.98272   0.06538   0.84609  -0.54084
O          O       0.26674   0.29833   0.53344  -0.54610
O          O       0.59586   0.46832   0.61819  -0.56439
O          O       0.40284   0.26028   0.51108  -0.52102
O          O       0.67127   0.69460   0.58554  -0.56200
O          O       0.33687   0.43807   0.60153  -0.56863
O          O       0.53757   0.70481   0.56163  -0.51027
O          O       0.52078   0.56908   0.58200  -0.76743
O          O       0.63034   0.60711   0.53482  -0.76846
O          O       0.06933   0.84020   0.87270  -0.51880
O          O       0.01730   0.93468   0.84600  -0.54085
O          O       0.73328   0.70168   0.53344  -0.54552
O          O       0.40415   0.53168   0.61819  -0.56389
O          O       0.59717   0.73971   0.51108  -0.52110
O          O       0.69459   0.67124   0.41447  -0.56270
O          O       0.43806   0.33685   0.39847  -0.56858
O          O       0.70480   0.53755   0.43837  -0.51005
O          O       0.56908   0.52076   0.41798  -0.76707
O          O       0.60712   0.63009   0.46523  -0.76814
O          O       0.84011   0.06937   0.12729  -0.51900
O          O       0.93461   0.01727   0.15387  -0.54115
O          O       0.70167   0.73326   0.46656  -0.54574
O          O       0.53165   0.40415   0.38180  -0.56435
O          O       0.73972   0.59717   0.48892  -0.52007
O          O       0.30540   0.32875   0.41447  -0.56215
O          O       0.56194   0.66316   0.39848  -0.56853
O          O       0.29520   0.46244   0.43837  -0.51018
O          O       0.43094   0.47924   0.41799  -0.76701
O          O       0.39289   0.36975   0.46520  -0.76831
O          O       0.15985   0.93064   0.12729  -0.51871
O          O       0.06535   0.98271   0.15393  -0.54065
O          O       0.29833   0.26673   0.46656  -0.54558
O          O       0.46835   0.59588   0.38181  -0.56464
O          O       0.26030   0.40283   0.48893  -0.52077
O          O       0.17120   0.80543   0.91447  -0.56319
O          O       0.83685   0.06194   0.89851  -0.56851
O          O       0.03754   0.79519   0.93837  -0.50980
O          O       0.02073   0.93095   0.91796  -0.76741
O          O       0.12989   0.89287   0.96526  -0.76806
O          O       0.56941   0.65991   0.62728  -0.51934
O          O       0.51735   0.56538   0.65385  -0.54088
O          O       0.23324   0.79835   0.96657  -0.54580
O          O       0.90412   0.96836   0.88180  -0.56392
O          O       0.09718   0.76028   0.98892  -0.51964
O          O       0.82879   0.19458   0.91448  -0.56287
O          O       0.16316   0.93807   0.89851  -0.56874
O          O       0.96248   0.20481   0.93837  -0.50966
O          O       0.97927   0.06906   0.91797  -0.76688
O          O       0.87018   0.10714   0.96526  -0.76824
O          O       0.43060   0.34009   0.62727  -0.51962
O          O       0.48265   0.43462   0.65384  -0.54037
O          O       0.76677   0.20165   0.96657  -0.54579
O          O       0.09588   0.03163   0.88179  -0.56466
O          O       0.90284   0.23973   0.98892  -0.52005

