data_crystal

_audit_creation_method 'AiiDA-DDEC plugin'

_cell_length_a        12.04260
_cell_length_b        12.28788
_cell_length_c        12.28064

_cell_angle_alpha     76.12925
_cell_angle_beta     60.67410
_cell_angle_gamma     60.69786

_symmetry_space_group_name_Hall 'P 1'
_symmetry_space_group_name_H-M  'P 1'

loop_
_symmetry_equiv_pos_as_xyz
 'x,y,z'

loop_
_atom_site_label
_atom_site_type_symbol
_atom_site_fract_x
_atom_site_fract_y
_atom_site_fract_z
_atom_site_charge
Ga         Ga      0.19000   0.61854  -0.00003   1.48439
Ga         Ga      0.81011   0.38139  -0.00015   1.48483
Ga         Ga      0.55854   0.50000   0.88283   1.48495
Ga         Ga      0.94167   0.49957   0.11750   1.48448
H          H       0.23871   0.55880   0.30690   0.11959
H          H       0.10451   0.44115   0.69311   0.12163
H          H       0.54743   0.80689   0.94118   0.12133
H          H       0.29586   0.19291   0.05881   0.12142
H          H       0.51138   0.19300   0.94123   0.12202
H          H       0.64537   0.80696   0.05887   0.12081
H          H       0.20265   0.55878   0.69302   0.12119
H          H       0.45431   0.44120   0.30681   0.12110
H          H       0.19092   0.43431   0.93385   0.41134
H          H       0.55993   0.56514   0.06599   0.41098
H          H       0.37423   0.43468   0.06607   0.41012
H          H       0.87537   0.56553   0.93404   0.41280
H          H       0.86347   0.50002   0.49998   0.14172
H          H       0.11366  -0.00013  -0.00008   0.14212
H          H       0.88645  -0.00004  -0.00000   0.13731
H          H       0.63650   0.50005   0.50006   0.13705
C          C       0.04402   0.54848   0.26979   0.60498
C          C       0.05367   0.52713   0.39061  -0.03245
C          C       0.16737   0.53087   0.39187  -0.13431
C          C       0.86238   0.45152   0.73028   0.60602
C          C       0.97140   0.47293   0.60945  -0.03632
C          C       0.09017   0.46910   0.60812  -0.13364
C          C       0.34217   0.76976   0.95221   0.60498
C          C       0.33075   0.89051   0.97310  -0.03344
C          C       0.44827   0.89183   0.96913  -0.13434
C          C       0.06466   0.22978   0.04786   0.60703
C          C       0.19467   0.10913   0.02697  -0.03439
C          C       0.30947   0.10794   0.03091  -0.13199
C          C       0.70566   0.23011   0.95220   0.60805
C          C       0.69617   0.10935   0.97315  -0.03398
C          C       0.58260   0.10806   0.96918  -0.13504
C          C       0.88765   0.76995   0.04792   0.60743
C          C       0.77845   0.89067   0.02705  -0.03565
C          C       0.65969   0.89191   0.03097  -0.13173
C          C       0.40737   0.54845   0.73031   0.61056
C          C       0.41926   0.52709   0.60938  -0.03494
C          C       0.30187   0.53085   0.60805  -0.13467
C          C       0.68622   0.45149   0.26976   0.60651
C          C       0.55572   0.47292   0.39053  -0.03409
C          C       0.44078   0.46911   0.39178  -0.13222
C          C       0.95366   0.50004   0.50002  -0.09341
C          C       0.18861   0.49996   0.50000   0.06571
C          C       0.20388  -0.00018  -0.00002  -0.09563
C          C       0.43866  -0.00008  -0.00003   0.06457
C          C       0.79618   0.00000   0.00005  -0.09092
C          C       0.56143  -0.00005   0.00001   0.06559
C          C       0.54632   0.50004   0.49999  -0.09047
C          C       0.31151   0.49997   0.49990   0.06466
O          O       0.10432   0.61300   0.18774  -0.56775
O          O       0.97945   0.49742   0.25964  -0.53515
O          O       0.90561   0.38707   0.81218  -0.56863
O          O       0.73674   0.50224   0.74051  -0.53351
O          O       0.46693   0.68763   0.88820  -0.56833
O          O       0.22635   0.75995   0.00319  -0.53421
O          O       0.04306   0.31197   0.11204  -0.56768
O          O       0.99016   0.23968   0.99658  -0.53635
O          O       0.64476   0.31232   0.88830  -0.56915
O          O       0.77071   0.23986   0.00306  -0.53653
O          O       0.84527   0.68770   0.11215  -0.56739
O          O       0.01334   0.76017   0.99646  -0.53721
O          O       0.28234   0.61277   0.81221  -0.57018
O          O       0.52281   0.49765   0.74055  -0.53695
O          O       0.70768   0.38710   0.18767  -0.56974
O          O       0.76119   0.50223   0.25962  -0.53420
O          O       0.12706   0.49777  -0.00165  -0.91954
O          O       0.62419   0.50190   0.00127  -0.92095
O          O       0.37452   0.49809   0.00150  -0.91997
O          O       0.87466   0.50203  -0.00149  -0.92020

