data_crystal

_audit_creation_method 'AiiDA-DDEC plugin'

_cell_length_a         9.94946
_cell_length_b        16.58445
_cell_length_c        28.89704

_cell_angle_alpha     90.07185
_cell_angle_beta     89.90889
_cell_angle_gamma     95.46997

_symmetry_space_group_name_Hall 'P 1'
_symmetry_space_group_name_H-M  'P 1'

loop_
_symmetry_equiv_pos_as_xyz
 'x,y,z'

loop_
_atom_site_label
_atom_site_type_symbol
_atom_site_fract_x
_atom_site_fract_y
_atom_site_fract_z
_atom_site_charge
Mg         Mg      0.56182  -0.00135   0.70022   1.54955
Mg         Mg      0.56783   0.49500   0.20016   1.55279
Mg         Mg      0.93898   0.50181   0.20000   1.55532
Mg         Mg      0.93252   0.00402   0.70014   1.55452
Mg         Mg      0.43818   0.00135   0.29978   1.54957
Mg         Mg      0.43217   0.50500   0.79984   1.55294
Mg         Mg      0.06103   0.49819   0.80001   1.55508
Mg         Mg      0.06749   0.99597   0.29987   1.55440
H          H       0.68523   0.06210   0.36100   0.35622
H          H       0.82454   0.95482   0.37479   0.36289
H          H       0.58445   0.29675   0.55539   0.09924
H          H       0.58439   0.16861   0.60019   0.12347
H          H       0.96045   0.25809   0.66316   0.12240
H          H       0.95595   0.38875   0.62070   0.10472
H          H       0.60180   0.36910   0.43914   0.09649
H          H       0.60545   0.24026   0.39712   0.11204
H          H       0.94255   0.18090   0.47890   0.12590
H          H       0.93757   0.30946   0.52169   0.09739
H          H       0.55051   0.53889   0.42719   0.10642
H          H       0.55140   0.53324   0.34096   0.10072
H          H       0.95547   0.46798   0.34186   0.10079
H          H       0.95368   0.46465   0.42811   0.10522
H          H       0.55797   0.68861   0.52211   0.09774
H          H       0.55434   0.81964   0.48176   0.12522
H          H       0.89844   0.76727   0.40102   0.11387
H          H       0.89983   0.63543   0.44015   0.09642
H          H       0.54303   0.61164   0.62206   0.10523
H          H       0.53644   0.74233   0.66433   0.12235
H          H       0.91056   0.83376   0.60031   0.12303
H          H       0.91225   0.70544   0.55576   0.09845
H          H       0.60859   0.39336   0.64210   0.11360
H          H       0.60040   0.39679   0.72704   0.11648
H          H       0.89436   0.60530   0.72721   0.11734
H          H       0.88911   0.60762   0.64222   0.11356
H          H       0.80384   0.43552   0.86030   0.35680
H          H       0.67941   0.54921   0.87038   0.35917
H          H       0.91733   0.20171   0.05592   0.09773
H          H       0.91771   0.32976   0.10090   0.12248
H          H       0.53981   0.24098   0.16335   0.12204
H          H       0.54451   0.11035   0.12076   0.10493
H          H       0.89825   0.13040   0.93886   0.09617
H          H       0.89106   0.25891   0.89677   0.11220
H          H       0.55661   0.31727   0.98047   0.12576
H          H       0.56329   0.18833   0.02272   0.09789
H          H       0.94937   0.95989   0.92686   0.10663
H          H       0.94809   0.96572   0.84065   0.10158
H          H       0.54530   0.03294   0.84230   0.10039
H          H       0.54676   0.03513   0.92859   0.10463
H          H       0.94148   0.80956   0.02171   0.09729
H          H       0.94606   0.67951   0.98018   0.12641
H          H       0.60169   0.73308   0.90034   0.11457
H          H       0.60010   0.86425   0.94041   0.09585
H          H       0.95696   0.88773   0.12198   0.10508
H          H       0.96328   0.75711   0.16428   0.12277
H          H       0.58966   0.66540   0.10038   0.12367
H          H       0.58796   0.79366   0.05581   0.09857
H          H       0.89181   0.10592   0.14216   0.11306
H          H       0.89903   0.10310   0.22710   0.11657
H          H       0.60531   0.89454   0.22739   0.11658
H          H       0.61134   0.89166   0.14244   0.11324
H          H       0.31477   0.93789   0.63900   0.35611
H          H       0.17546   0.04519   0.62522   0.36299
H          H       0.41555   0.70325   0.44461   0.09938
H          H       0.41561   0.83139   0.39981   0.12344
H          H       0.03956   0.74191   0.33684   0.12229
H          H       0.04405   0.61125   0.37931   0.10473
H          H       0.39820   0.63090   0.56087   0.09658
H          H       0.39455   0.75974   0.60288   0.11211
H          H       0.05746   0.81910   0.52110   0.12577
H          H       0.06243   0.69054   0.47832   0.09728
H          H       0.44949   0.46111   0.57281   0.10642
H          H       0.44860   0.46677   0.65905   0.10088
H          H       0.04454   0.53203   0.65814   0.10080
H          H       0.04632   0.53535   0.57190   0.10518
H          H       0.44204   0.31139   0.47789   0.09762
H          H       0.44566   0.18036   0.51824   0.12516
H          H       0.10156   0.23273   0.59899   0.11399
H          H       0.10017   0.36457   0.55985   0.09639
H          H       0.45697   0.38836   0.37794   0.10518
H          H       0.46356   0.25767   0.33567   0.12231
H          H       0.08944   0.16623   0.39970   0.12312
H          H       0.08775   0.29456   0.44424   0.09851
H          H       0.39141   0.60664   0.35791   0.11363
H          H       0.39960   0.60321   0.27296   0.11636
H          H       0.10564   0.39470   0.27280   0.11732
H          H       0.11089   0.39237   0.35779   0.11372
H          H       0.19615   0.56447   0.13971   0.35701
H          H       0.32060   0.45079   0.12962   0.35907
H          H       0.08266   0.79829   0.94408   0.09765
H          H       0.08229   0.67024   0.89910   0.12254
H          H       0.46019   0.75901   0.83665   0.12195
H          H       0.45549   0.88964   0.87924   0.10488
H          H       0.10175   0.86959   0.06114   0.09617
H          H       0.10894   0.74109   0.10323   0.11227
H          H       0.44339   0.68273   0.01954   0.12580
H          H       0.43670   0.81167   0.97729   0.09786
H          H       0.05063   0.04011   0.07314   0.10651
H          H       0.05191   0.03428   0.15935   0.10157
H          H       0.45470   0.96706   0.15770   0.10055
H          H       0.45324   0.96487   0.07141   0.10458
H          H       0.05852   0.19044   0.97829   0.09727
H          H       0.05394   0.32049   0.01983   0.12625
H          H       0.39831   0.26692   0.09966   0.11469
H          H       0.39991   0.13575   0.05959   0.09598
H          H       0.04304   0.11227   0.87803   0.10507
H          H       0.03672   0.24289   0.83572   0.12265
H          H       0.41034   0.33460   0.89962   0.12371
H          H       0.41204   0.20635   0.94420   0.09866
H          H       0.10819   0.89408   0.85784   0.11319
H          H       0.10097   0.89689   0.77291   0.11658
H          H       0.39469   0.10546   0.77262   0.11638
H          H       0.38866   0.10834   0.85756   0.11325
C          C       0.76276   0.42799   0.55875  -0.01456
C          C       0.76255   0.42761   0.50968  -0.01618
C          C       0.75064   0.50097   0.48547  -0.01648
C          C       0.73757   0.57395   0.50998  -0.01857
C          C       0.73594   0.57344   0.55908  -0.01452
C          C       0.74921   0.50061   0.58353  -0.02134
C          C       0.77065   0.35085   0.58451   0.07876
C          C       0.66660   0.28831   0.57904  -0.14093
C          C       0.66611   0.21673   0.60403  -0.07627
C          C       0.77336   0.20566   0.63411  -0.04584
C          C       0.87857   0.26748   0.63947  -0.08442
C          C       0.87621   0.34007   0.61539  -0.14295
C          C       0.76970   0.35009   0.48370   0.07648
C          C       0.67688   0.32843   0.44816  -0.13572
C          C       0.67916   0.25597   0.42409  -0.08602
C          C       0.77593   0.20248   0.43450  -0.04895
C          C       0.86817   0.22258   0.47027  -0.08014
C          C       0.86492   0.29535   0.49425  -0.13198
C          C       0.75177   0.50134   0.43383   0.08978
C          C       0.63913   0.52210   0.40874  -0.14020
C          C       0.63938   0.51998   0.36056  -0.08439
C          C       0.75324   0.50022   0.33610  -0.04865
C          C       0.86660   0.48146   0.36101  -0.08429
C          C       0.86539   0.48046   0.40920  -0.13855
C          C       0.72977   0.65161   0.48446   0.07923
C          C       0.63240   0.70478   0.49543  -0.13644
C          C       0.62995   0.77882   0.47293  -0.08092
C          C       0.72532   0.80201   0.43853  -0.04650
C          C       0.82305   0.74956   0.42724  -0.08893
C          C       0.82410   0.67545   0.44967  -0.13742
C          C       0.72700   0.65048   0.58511   0.07718
C          C       0.62174   0.66080   0.61635  -0.13943
C          C       0.61827   0.73352   0.64038  -0.08518
C          C       0.72206   0.79614   0.63468  -0.04650
C          C       0.82932   0.78540   0.60437  -0.07708
C          C       0.82997   0.71365   0.57949  -0.13894
C          C       0.74880   0.50053   0.63522   0.07367
C          C       0.66907   0.44118   0.66035  -0.11404
C          C       0.66514   0.44248   0.70848  -0.09996
C          C       0.74696   0.50120   0.73298  -0.07937
C          C       0.82991   0.55951   0.70860  -0.10053
C          C       0.82782   0.56012   0.66045  -0.11323
C          C       0.77369   0.12837   0.66025   0.65229
C          C       0.78263   0.12615   0.40778   0.57215
C          C       0.75356   0.49903   0.28434   0.65530
C          C       0.71951   0.88121   0.41470   0.56845
C          C       0.72048   0.87393   0.66049   0.65307
C          C       0.74631   0.50055   0.78430   0.64717
C          C       0.73834   0.07099   0.05889  -0.01378
C          C       0.73827   0.07118   0.00982  -0.01611
C          C       0.74978   0.99775   0.98555  -0.01940
C          C       0.76289   0.92489   0.01003  -0.01487
C          C       0.76457   0.92558   0.05911  -0.01329
C          C       0.75159  -0.00153   0.08365  -0.02355
C          C       0.73036   0.14814   0.08471   0.07728
C          C       0.83476   0.21047   0.07943  -0.13806
C          C       0.83534   0.28201   0.10458  -0.07719
C          C       0.72781   0.29324   0.13464  -0.04695
C          C       0.62204   0.23159   0.13970  -0.08496
C          C       0.62437   0.15902   0.11551  -0.14147
C          C       0.73071   0.14862   0.98397   0.08078
C          C       0.82258   0.17063   0.94813  -0.13721
C          C       0.81842   0.24290   0.92408  -0.08662
C          C       0.72155   0.29603   0.93514  -0.04877
C          C       0.63072   0.27567   0.97134  -0.07932
C          C       0.63509   0.20288   0.99504  -0.13680
C          C       0.74835   0.99752   0.93391   0.08948
C          C       0.86074   0.97674   0.90854  -0.13960
C          C       0.86026   0.97922   0.86037  -0.08431
C          C       0.74663  -0.00032   0.83615  -0.05084
C          C       0.63370   0.01874   0.86136  -0.08284
C          C       0.63487   0.01901   0.90956  -0.13662
C          C       0.77017   0.84726   0.98440   0.07833
C          C       0.86725   0.79380   0.99497  -0.13384
C          C       0.87032   0.72040   0.97173  -0.08222
C          C       0.77561   0.69831   0.93704  -0.04415
C          C       0.67710   0.75055   0.92654  -0.08930
C          C       0.67572   0.82406   0.94961  -0.13709
C          C       0.77325   0.84863   0.08507   0.07565
C          C       0.87826   0.83852   0.11633  -0.13837
C          C       0.88151   0.76594   0.14041  -0.08589
C          C       0.77760   0.70338   0.13474  -0.04624
C          C       0.67053   0.71395   0.10447  -0.07860
C          C       0.67007   0.78555   0.07954  -0.13750
C          C       0.75170  -0.00127   0.13534   0.07368
C          C       0.83111   0.05824   0.16045  -0.11407
C          C       0.83447   0.05726   0.20858  -0.10029
C          C       0.75268  -0.00140   0.23315  -0.08050
C          C       0.66989   0.94022   0.20877  -0.10125
C          C       0.67241   0.93933   0.16061  -0.11357
C          C       0.72694   0.37039   0.16107   0.65596
C          C       0.71267   0.37263   0.90905   0.56984
C          C       0.74651   0.00129   0.78437   0.65499
C          C       0.78282   0.62080   0.91165   0.56843
C          C       0.77926   0.62569   0.16045   0.65410
C          C       0.75366  -0.00071   0.28453   0.65014
C          C       0.23724   0.57201   0.44125  -0.01451
C          C       0.23745   0.57239   0.49033  -0.01625
C          C       0.24936   0.49903   0.51453  -0.01625
C          C       0.26243   0.42605   0.49003  -0.01867
C          C       0.26406   0.42656   0.44092  -0.01437
C          C       0.25079   0.49939   0.41647  -0.02151
C          C       0.22935   0.64914   0.41549   0.07888
C          C       0.33340   0.71169   0.42097  -0.14097
C          C       0.33389   0.78327   0.39598  -0.07630
C          C       0.22664   0.79434   0.36589  -0.04568
C          C       0.12144   0.73252   0.36054  -0.08459
C          C       0.12379   0.65993   0.38462  -0.14302
C          C       0.23030   0.64991   0.51630   0.07645
C          C       0.32312   0.67156   0.55184  -0.13572
C          C       0.32084   0.74403   0.57591  -0.08594
C          C       0.22407   0.79752   0.56550  -0.04878
C          C       0.13183   0.77742   0.52973  -0.08024
C          C       0.13508   0.70465   0.50575  -0.13200
C          C       0.24823   0.49866   0.56618   0.08976
C          C       0.36087   0.47790   0.59126  -0.14042
C          C       0.36062   0.48002   0.63944  -0.08431
C          C       0.24676   0.49978   0.66390  -0.04865
C          C       0.13339   0.51853   0.63899  -0.08420
C          C       0.13461   0.51954   0.59080  -0.13871
C          C       0.27023   0.34839   0.51554   0.07932
C          C       0.36761   0.29522   0.50458  -0.13651
C          C       0.37006   0.22118   0.52708  -0.08084
C          C       0.27468   0.19799   0.56147  -0.04653
C          C       0.17695   0.25044   0.57277  -0.08892
C          C       0.17590   0.32455   0.55034  -0.13742
C          C       0.27300   0.34952   0.41490   0.07713
C          C       0.37826   0.33920   0.38365  -0.13942
C          C       0.38173   0.26648   0.35962  -0.08536
C          C       0.27794   0.20386   0.36532  -0.04650
C          C       0.17068   0.21459   0.39563  -0.07716
C          C       0.17003   0.28635   0.42051  -0.13883
C          C       0.25120   0.49946   0.36478   0.07383
C          C       0.33093   0.55882   0.33966  -0.11418
C          C       0.33486   0.55752   0.29153  -0.09999
C          C       0.25305   0.49880   0.26702  -0.07929
C          C       0.17009   0.44049   0.29140  -0.10058
C          C       0.17218   0.43988   0.33955  -0.11337
C          C       0.22631   0.87163   0.33975   0.65231
C          C       0.21737   0.87385   0.59222   0.57227
C          C       0.24644   0.50098   0.71567   0.65533
C          C       0.28049   0.11879   0.58530   0.56833
C          C       0.27952   0.12607   0.33952   0.65318
C          C       0.25369   0.49945   0.21570   0.64741
C          C       0.26165   0.92901   0.94111  -0.01384
C          C       0.26173   0.92882   0.99018  -0.01605
C          C       0.25022   0.00225   0.01445  -0.01958
C          C       0.23712   0.07511   0.98997  -0.01483
C          C       0.23543   0.07442   0.94089  -0.01323
C          C       0.24840   0.00153   0.91635  -0.02358
C          C       0.26964   0.85186   0.91530   0.07738
C          C       0.16524   0.78953   0.92057  -0.13773
C          C       0.16466   0.71799   0.89542  -0.07731
C          C       0.27219   0.70676   0.86536  -0.04691
C          C       0.37796   0.76840   0.86030  -0.08514
C          C       0.37563   0.84098   0.88449  -0.14148
C          C       0.26929   0.85138   0.01603   0.08080
C          C       0.17742   0.82937   0.05188  -0.13738
C          C       0.18158   0.75709   0.07593  -0.08634
C          C       0.27845   0.70396   0.06486  -0.04895
C          C       0.36928   0.72433   0.02866  -0.07913
C          C       0.36491   0.79712   0.00496  -0.13702
C          C       0.25165   0.00248   0.06609   0.08952
C          C       0.13927   0.02326   0.09147  -0.13972
C          C       0.13974   0.02078   0.13963  -0.08413
C          C       0.25337   0.00031   0.16385  -0.05083
C          C       0.36630   0.98126   0.13864  -0.08279
C          C       0.36513   0.98099   0.09044  -0.13666
C          C       0.22983   0.15274   0.01561   0.07830
C          C       0.13275   0.20620   0.00503  -0.13408
C          C       0.12968   0.27960   0.02827  -0.08205
C          C       0.22439   0.30169   0.06297  -0.04428
C          C       0.32290   0.24945   0.07347  -0.08924
C          C       0.32428   0.17594   0.05039  -0.13696
C          C       0.22675   0.15137   0.91493   0.07572
C          C       0.12174   0.16148   0.88367  -0.13840
C          C       0.11849   0.23405   0.85960  -0.08598
C          C       0.22240   0.29661   0.86526  -0.04626
C          C       0.32947   0.28605   0.89553  -0.07862
C          C       0.32993   0.21445   0.92046  -0.13750
C          C       0.24830   0.00127   0.86466   0.07365
C          C       0.16889   0.94176   0.83955  -0.11411
C          C       0.16553   0.94274   0.79142  -0.10023
C          C       0.24733   0.00140   0.76685  -0.08076
C          C       0.33011   0.05978   0.79124  -0.10114
C          C       0.32759   0.06067   0.83940  -0.11353
C          C       0.27306   0.62960   0.83895   0.65594
C          C       0.28733   0.62737   0.09095   0.56976
C          C       0.25349  -0.00129   0.21564   0.65503
C          C       0.21718   0.37920   0.08835   0.56834
C          C       0.22074   0.37431   0.83955   0.65438
C          C       0.24634   0.00071   0.71547   0.65056
O          O       0.66030   0.08601   0.66479  -0.73240
O          O       0.88647   0.10953   0.67618  -0.71045
O          O       0.67954   0.11408   0.37733  -0.48028
O          O       0.87168   0.08008   0.41195  -0.49076
O          O       0.64074   0.50472   0.26392  -0.73238
O          O       0.86628   0.49217   0.26402  -0.72981
O          O       0.62689   0.92447   0.41907  -0.48690
O          O       0.82819   0.89964   0.38703  -0.48314
O          O       0.60746   0.89281   0.67634  -0.70875
O          O       0.83335   0.91693   0.66473  -0.73396
O          O       0.63326   0.49576   0.80582  -0.67007
O          O       0.85916   0.50376   0.80593  -0.66954
O          O       0.83985   0.41277   0.16655  -0.73660
O          O       0.61331   0.38916   0.17640  -0.71059
O          O       0.80757   0.38234   0.87527  -0.48432
O          O       0.62859   0.42072   0.91645  -0.48627
O          O       0.85838   0.99250   0.76387  -0.73168
O          O       0.63491   0.01124   0.76407  -0.72999
O          O       0.87752   0.57870   0.91427  -0.48819
O          O       0.67310   0.60281   0.88449  -0.48059
O          O       0.89254   0.60708   0.17607  -0.71094
O          O       0.66653   0.58258   0.16485  -0.73442
O          O       0.86674   0.00418   0.30574  -0.66956
O          O       0.64065   0.99619   0.30632  -0.67094
O          O       0.33969   0.91399   0.33521  -0.73243
O          O       0.11353   0.89046   0.32383  -0.71054
O          O       0.32046   0.88591   0.62267  -0.48010
O          O       0.12832   0.91992   0.58805  -0.49103
O          O       0.35926   0.49531   0.73608  -0.73229
O          O       0.13371   0.50782   0.73599  -0.72977
O          O       0.37311   0.07553   0.58093  -0.48678
O          O       0.17181   0.10037   0.61297  -0.48304
O          O       0.39255   0.10719   0.32366  -0.70881
O          O       0.16665   0.08307   0.33527  -0.73399
O          O       0.36674   0.50424   0.19419  -0.67019
O          O       0.14084   0.49624   0.19407  -0.66985
O          O       0.16015   0.58721   0.83349  -0.73659
O          O       0.38667   0.61083   0.82360  -0.71058
O          O       0.19244   0.61766   0.12473  -0.48443
O          O       0.37141   0.57927   0.08355  -0.48611
O          O       0.14162   0.00749   0.23613  -0.73160
O          O       0.36509   0.98876   0.23593  -0.72998
O          O       0.12248   0.42130   0.08574  -0.48828
O          O       0.32690   0.39719   0.11552  -0.48031
O          O       0.10746   0.39292   0.82393  -0.71112
O          O       0.33347   0.41742   0.83516  -0.73461
O          O       0.13326   0.99582   0.69426  -0.66991
O          O       0.35936   0.00381   0.69369  -0.67110

