data_crystal

_cell_length_a 6.84310
_cell_length_b 8.98810
_cell_length_c 9.97550
_cell_angle_alpha 102.09600
_cell_angle_beta  100.55400
_cell_angle_gamma 110.17000

_symmetry_space_group_name_	'P 1'
_symmetry_space_group_name_H-M	'P 1'

loop_
_symmetry_equiv_pos_as_xyz
  x,y,z

loop_
_atom_site_label
_atom_site_type_symbol
_atom_site_fract_x
_atom_site_fract_y
_atom_site_fract_z
_atom_site_charge
O 	O 	0.57877 0.85261 0.26684 -0.43000
C 	C 	0.65591 0.92590 0.39436 0.36800
O 	O 	0.36966 0.47957 0.86504 -0.55300
O 	O 	0.03347 0.40874 0.87783 -0.56000
C 	C 	0.16814 0.41054 0.80693 0.41900
C 	C 	0.08447 0.32821 0.64917 -0.17000
C 	C 	0.91053 0.17428 0.59723 0.09300
C 	C 	0.83334 0.09416 0.45087 -0.12900
Ca	Ca	0.31483 0.58486 0.10992 1.50800
O 	O 	0.32522 0.55818 0.35310 -0.35100
O 	O 	0.14025 0.32791 0.17662 -0.38900
O 	O 	0.59329 0.86312 0.49468 -0.23500
C 	C 	0.09664 0.32568 0.40844 -0.10700
C 	C 	0.19407 0.40883 0.30724 0.31500
C 	C 	0.17772 0.40415 0.55519 0.08500
H 	H 	0.29390 0.50700 0.59020 0.03300
H 	H 	0.84600 0.12500 0.66000 0.01000
C 	C 	0.92582 0.17007 0.35647 0.06800
H 	H 	0.87340 0.11680 0.25880 0.02600
O 	O 	0.42123 0.14739 0.73316 -0.43100
C 	C 	0.34409 0.07410 0.60564 0.36700
O 	O 	0.63034 0.52043 0.13496 -0.55300
O 	O 	0.96653 0.59126 0.12217 -0.56000
C 	C 	0.83186 0.58946 0.19307 0.41900
C 	C 	0.91553 0.67179 0.35083 -0.17000
C 	C 	0.08947 0.82572 0.40277 0.09300
C 	C 	0.16666 0.90584 0.54913 -0.12900
Ca	Ca	0.68517 0.41514 0.89008 1.50800
O 	O 	0.67478 0.44182 0.64690 -0.35100
O 	O 	0.85975 0.67209 0.82338 -0.38900
O 	O 	0.40671 0.13688 0.50532 -0.23500
C 	C 	0.90336 0.67432 0.59156 -0.10700
C 	C 	0.80593 0.59117 0.69276 0.31500
C 	C 	0.82228 0.59585 0.44481 0.08500
H 	H 	0.70610 0.49300 0.40980 0.03300
H 	H 	0.15400 0.87500 0.34000 0.01000
C 	C 	0.07418 0.82993 0.64353 0.06800
H 	H 	0.12660 0.88320 0.74120 0.02600
