data_crystal

_audit_creation_method 'AiiDA-DDEC plugin'

_cell_length_a        12.63923
_cell_length_b        12.51772
_cell_length_c        12.50996

_cell_angle_alpha     75.22843
_cell_angle_beta     59.66660
_cell_angle_gamma     59.68208

_symmetry_space_group_name_Hall 'P 1'
_symmetry_space_group_name_H-M  'P 1'

loop_
_symmetry_equiv_pos_as_xyz
 'x,y,z'

loop_
_atom_site_label
_atom_site_type_symbol
_atom_site_fract_x
_atom_site_fract_y
_atom_site_fract_z
_atom_site_charge
Mg         Mg      0.67828   0.64358  -0.00022   1.57002
Mg         Mg      0.32219   0.35589  -0.00019   1.56936
Mg         Mg      0.07142   0.50015   0.85717   1.56986
Mg         Mg      0.42817   0.50014   0.14336   1.57115
H          H       0.05048   0.81014   0.94021   0.11300
H          H       0.93304   0.39646  -0.00050   0.40809
H          H       0.80085   0.19015   0.06014   0.11350
H          H       0.32901   0.60342   0.00078   0.40788
H          H       0.61112   0.43956   0.68988   0.11195
H          H       0.08051   0.49909   0.10375   0.40805
H          H       0.74080   0.56002   0.30985   0.10952
H          H       0.68187   0.50026   0.89610   0.40947
H          H       0.69940   0.55996   0.68990   0.11227
H          H       0.81678   0.50056   0.10395   0.40904
H          H       0.94941   0.43949   0.30987   0.10935
H          H       0.42113   0.49935   0.89630   0.40929
H          H       0.13891   0.81011   0.06012   0.11223
H          H       0.66933   0.39657   0.00095   0.40793
H          H       0.00917   0.19012   0.94019   0.11330
H          H       0.06825   0.60355  -0.00035   0.40820
H          H       0.63137   0.00057  -0.00001   0.14351
H          H       0.38119   0.50055   0.50016   0.14218
H          H       0.11873   0.49987   0.49957   0.14213
H          H       0.36882  -0.00040  -0.00054   0.14309
C          C       0.95287   0.89335   0.96924  -0.13835
C          C       0.84117   0.89171   0.97270  -0.04457
C          C       0.85511   0.77249   0.94924   0.64307
C          C       0.81532   0.10702   0.03109  -0.13860
C          C       0.70542   0.10883   0.02752  -0.04468
C          C       0.57683   0.22802   0.05097   0.64237
C          C       0.59641   0.46886   0.60677  -0.13664
C          C       0.48281   0.47259   0.60861  -0.04219
C          C       0.37786   0.44883   0.72809   0.64050
C          C       0.67218   0.53096   0.39306  -0.13429
C          C       0.56380   0.52774   0.39137  -0.04257
C          C       0.55434   0.55167   0.27198   0.64167
C          C       0.79712   0.53078   0.60671  -0.13624
C          C       0.90882   0.52735   0.60840  -0.04171
C          C       0.89441   0.55116   0.72785   0.63988
C          C       0.93487   0.46868   0.39300  -0.13318
C          C       0.04486   0.47217   0.39117  -0.04457
C          C       0.17360   0.44824   0.27177   0.64317
C          C       0.15359   0.89319   0.03097  -0.13730
C          C       0.26718   0.89131   0.02721  -0.04499
C          C       0.37229   0.77203   0.05072   0.64239
C          C       0.07781   0.10685   0.96911  -0.13817
C          C       0.18618   0.10843   0.97238  -0.04463
C          C       0.19573   0.22760   0.94900   0.64243
C          C       0.94133   0.00015   0.00011   0.06539
C          C       0.71749   0.00037  -0.00002  -0.08898
C          C       0.69153   0.49988   0.49991   0.06375
C          C       0.46735   0.50038   0.50005  -0.09183
C          C       0.80874   0.49980   0.49988   0.06274
C          C       0.03264   0.49988   0.49971  -0.09178
C          C       0.05849   0.00006   0.00005   0.06540
C          C       0.28267  -0.00023  -0.00043  -0.08834
O          O       0.74652   0.76666   0.97846  -0.66885
O          O       0.97747   0.68332   0.90400  -0.71195
O          O       0.49145   0.23396   0.02199  -0.66777
O          O       0.56503   0.31725   0.09600  -0.71116
O          O       0.26255   0.47932   0.73512  -0.66858
O          O       0.41237   0.40199   0.81640  -0.71046
O          O       0.47584   0.52192   0.26523  -0.67046
O          O       0.63069   0.59801   0.18351  -0.70962
O          O       0.00276   0.52062   0.73481  -0.66905
O          O       0.77165   0.59807   0.81610  -0.71022
O          O       0.25892   0.47791   0.26493  -0.67070
O          O       0.18561   0.40199   0.18325  -0.70965
O          O       0.48683   0.76589   0.02141  -0.66832
O          O       0.33880   0.68299   0.09612  -0.71143
O          O       0.27535   0.23327   0.97798  -0.66870
O          O       0.11834   0.31694   0.90408  -0.71110
O          O       0.63919   0.48642   0.98617  -0.89178
O          O       0.11168   0.51357   0.01380  -0.89072
O          O       0.87445   0.48638   0.01394  -0.89079
O          O       0.37469   0.51349   0.98631  -0.89221

