data_crystal

_audit_creation_method 'AiiDA-DDEC plugin'

_cell_length_a         9.87183
_cell_length_b        10.63350
_cell_length_c        10.63346

_cell_angle_alpha     120.13087
_cell_angle_beta     89.95666
_cell_angle_gamma     90.02372

_symmetry_space_group_name_Hall 'P 1'
_symmetry_space_group_name_H-M  'P 1'

loop_
_symmetry_equiv_pos_as_xyz
 'x,y,z'

loop_
_atom_site_label
_atom_site_type_symbol
_atom_site_fract_x
_atom_site_fract_y
_atom_site_fract_z
_atom_site_charge
Sr         Sr      0.15883   0.01662   0.10964   1.52600
Sr         Sr      0.82539   0.09297   0.98354   1.52527
Sr         Sr      0.49229   0.89029   0.90676   1.52518
H          H       0.87453   0.78802   0.66239   0.10639
H          H       0.80553   0.58052   0.42182   0.12209
H          H       0.20672   0.40274   0.36308   0.10589
H          H       0.27881   0.61671   0.59694   0.11797
H          H       0.54132   0.87455   0.21218   0.10604
H          H       0.47221   0.84103   0.41905   0.12182
H          H       0.87338   0.96016   0.59668   0.10607
H          H       0.94572   0.98000   0.38311   0.11821
H          H       0.20777   0.33772   0.12538   0.10643
H          H       0.13887   0.57814   0.15904   0.12183
H          H       0.54020   0.63622   0.03957   0.10594
H          H       0.61236   0.40291   0.01989   0.11804
C          C       0.12137   0.84150   0.78859   0.62165
C          C       0.08101   0.71597   0.64502  -0.03785
C          C       0.94745   0.70461   0.59558  -0.10617
C          C       0.90812   0.58778   0.46228  -0.09111
C          C       0.00093   0.47723   0.37808  -0.02732
C          C       0.95657   0.35157   0.23532   0.59166
C          C       0.13422   0.48745   0.42868  -0.10742
C          C       0.17473   0.60669   0.55991  -0.08853
C          C       0.78810   0.94702   0.15856   0.62223
C          C       0.74778   0.92909   0.28401  -0.03839
C          C       0.61420   0.89104   0.29546  -0.10512
C          C       0.57480   0.87442   0.41198  -0.09143
C          C       0.66759   0.90085   0.52243  -0.02649
C          C       0.62325   0.88406   0.64813   0.59171
C          C       0.80093   0.94113   0.51210  -0.10757
C          C       0.84155   0.95313   0.39308  -0.08921
C          C       0.45479   0.21164   0.05333   0.62307
C          C       0.41438   0.35490   0.07099  -0.03880
C          C       0.28081   0.40447   0.10901  -0.10561
C          C       0.24147   0.53765   0.12559  -0.09156
C          C       0.33431   0.62153   0.09899  -0.02723
C          C       0.28998   0.76393   0.11543   0.59279
C          C       0.46764   0.57080   0.05872  -0.10685
C          C       0.50821   0.43983   0.04684  -0.08884
O          O       0.03439   0.94197   0.86381  -0.70709
O          O       0.24008   0.84456   0.83816  -0.68584
O          O       0.84079   0.35527   0.18566  -0.61531
O          O       0.03846   0.24301   0.16671  -0.72432
O          O       0.70130   0.92091   0.05783  -0.70756
O          O       0.90663   0.99410   0.15573  -0.68576
O          O       0.50757   0.83049   0.64453  -0.61492
O          O       0.70519   0.92455   0.75666  -0.72479
O          O       0.36812   0.13706   0.07963  -0.70781
O          O       0.57336   0.16174   0.00623  -0.68643
O          O       0.17444   0.81428   0.16927  -0.61577
O          O       0.37191   0.83151   0.07446  -0.72515

