data_crystal

_audit_creation_method 'AiiDA-DDEC plugin'

_cell_length_a         7.42538
_cell_length_b        21.96338
_cell_length_c        21.94170

_cell_angle_alpha     119.43820
_cell_angle_beta     90.01413
_cell_angle_gamma     90.01321

_symmetry_space_group_name_Hall 'P 1'
_symmetry_space_group_name_H-M  'P 1'

loop_
_symmetry_equiv_pos_as_xyz
 'x,y,z'

loop_
_atom_site_label
_atom_site_type_symbol
_atom_site_fract_x
_atom_site_fract_y
_atom_site_fract_z
_atom_site_charge
In         In     -0.00089   0.00053   0.49899   1.56195
In         In      0.49866   0.00038   0.49923   1.56241
In         In      0.49617   0.49808   0.00020   1.56068
In         In     -0.00407   0.49798  -0.00105   1.56291
In         In      0.00354   0.00186   0.00104   1.56922
In         In      0.50386   0.00119   0.00151   1.56922
H          H       0.53798   0.20550   0.68214   0.12053
H          H       0.96169   0.02884   0.31965   0.12784
H          H       0.96230   0.03432   0.20739   0.12768
H          H       0.03823   0.79440   0.31745   0.12133
H          H       0.46153   0.97016   0.67780   0.12838
H          H       0.46269   0.96664   0.79078   0.11845
H          H       0.95921   0.31855   0.79474   0.12807
H          H       0.53616   0.67750   0.97075   0.12028
H          H       0.53923   0.78999   0.96684   0.11979
H          H       0.45949   0.68075   0.20580   0.12100
H          H       0.03635   0.31983   0.02720   0.12788
H          H       0.03918   0.20868   0.03443   0.12762
H          H       0.46125   0.79538   0.31842   0.12129
H          H       0.03808   0.97018   0.67689   0.12848
H          H       0.03975   0.96665   0.78992   0.11919
H          H       0.96066   0.20451   0.68111   0.12064
H          H       0.53843   0.02882   0.32036   0.12753
H          H       0.53970   0.03430   0.20809   0.12754
H          H       0.03642   0.67986   0.20480   0.12117
H          H       0.45949   0.31824   0.02733   0.12660
H          H       0.46201   0.20707   0.03454   0.12806
H          H       0.53627   0.31950   0.79576   0.12869
H          H       0.95955   0.67918   0.97062   0.12062
H          H       0.96265   0.79168   0.96673   0.11977
H          H       0.24384   0.53403   0.09910   0.41077
H          H       0.74909   0.09937   0.53139   0.41049
H          H       0.24875   0.90134   0.46809   0.41005
H          H       0.74381   0.53424   0.93539   0.40992
H          H       0.75448   0.92140   0.01380   0.40569
H          H       0.25452   0.01450   0.92133   0.40730
C          C       0.41252   0.23089   0.70702  -0.09703
C          C       0.08650   0.03045   0.29475  -0.09750
C          C       0.08702   0.03363   0.23293  -0.09691
C          C       0.91276   0.76881   0.29269  -0.09679
C          C       0.58652   0.96912   0.70291  -0.09719
C          C       0.58757   0.96718   0.76539  -0.09620
C          C       0.08433   0.29321   0.76930  -0.09545
C          C       0.41184   0.70266   0.96935  -0.09689
C          C       0.41364   0.76498   0.96727  -0.09705
C          C       0.58492   0.70596   0.23093  -0.09713
C          C       0.91222   0.29486   0.02930  -0.09737
C          C       0.91385   0.23370   0.03355  -0.09635
C          C       0.58589   0.76937   0.29327  -0.09667
C          C       0.91359   0.96913   0.70226  -0.09682
C          C       0.91448   0.96718   0.76472  -0.09808
C          C       0.08535   0.23036   0.70645  -0.09705
C          C       0.41395   0.03043   0.29526  -0.09716
C          C       0.41476   0.03361   0.23347  -0.09713
C          C       0.91172   0.70542   0.23032  -0.09791
C          C       0.58484   0.29391   0.02938  -0.09609
C          C       0.58624   0.23271   0.03361  -0.09670
C          C       0.41177   0.29377   0.76990  -0.09620
C          C       0.08526   0.70365   0.96928  -0.09591
C          C       0.08701   0.76599   0.96721  -0.09720
C          C       0.24968   0.12937   0.60888   0.61692
C          C       0.24932   0.19857   0.67513  -0.03515
C          C       0.24851   0.02326   0.39153   0.60675
C          C       0.24979   0.02856   0.32599  -0.03073
C          C       0.25137   0.03496   0.20198  -0.03358
C          C       0.25338   0.03400   0.13331   0.60811
C          C       0.75095   0.87086   0.39039   0.61664
C          C       0.74988   0.80132   0.32443  -0.03179
C          C       0.74766   0.97642   0.60599   0.60504
C          C       0.74941   0.97085   0.67146  -0.02638
C          C       0.75171   0.96702   0.79710  -0.03294
C          C       0.75363   0.97056   0.86714   0.61382
C          C       0.24631   0.39067   0.87107   0.61073
C          C       0.24756   0.32488   0.80156  -0.03041
C          C       0.24635   0.60630   0.97619   0.61348
C          C       0.24765   0.67189   0.97097  -0.03083
C          C       0.25130   0.79744   0.96695  -0.02712
C          C       0.25361   0.86741   0.97033   0.61137
C          C       0.74635   0.60670   0.13012   0.61219
C          C       0.74774   0.67368   0.19887  -0.02924
C          C       0.74621   0.38993   0.02058   0.61139
C          C       0.74768   0.32508   0.02693  -0.03401
C          C       0.75097   0.20224   0.03539  -0.03171
C          C       0.75349   0.13371   0.03465   0.60813
O          O       0.09577   0.10287   0.58358  -0.59306
O          O       0.09376   0.02148   0.41609  -0.58932
O          O       0.10033   0.03335   0.10648  -0.57881
O          O       0.59737   0.89747   0.41557  -0.59215
O          O       0.59275   0.97848   0.58171  -0.58760
O          O       0.59997   0.97270   0.89435  -0.60347
O          O       0.39974   0.41577   0.89775  -0.57864
O          O       0.40020   0.58154   0.97855  -0.60190
O          O       0.40874   0.89380   0.97273  -0.60069
O          O       0.89995   0.58174   0.10320  -0.60272
O          O       0.89960   0.41495   0.01823  -0.57967
O          O       0.90845   0.10782   0.03332  -0.57668
O          O       0.90536   0.89707   0.41518  -0.59107
O          O       0.90135   0.97854   0.58111  -0.58945
O          O       0.90857   0.97276   0.89372  -0.60377
O          O       0.40365   0.10303   0.58378  -0.59178
O          O       0.40225   0.02138   0.41664  -0.59036
O          O       0.40818   0.03248   0.10721  -0.57707
O          O       0.59143   0.58119   0.10496  -0.60188
O          O       0.59157   0.41433   0.01837  -0.57947
O          O       0.60061   0.10668   0.03371  -0.57887
O          O       0.09159   0.41514   0.89705  -0.58046
O          O       0.09154   0.58159   0.97782  -0.60144
O          O       0.10010   0.89449   0.97217  -0.60179
O          O       0.24841   0.95153   0.49994  -0.87998
O          O       0.74845   0.04937   0.49864  -0.87821
O          O       0.24523   0.49965   0.04950  -0.87869
O          O       0.74521   0.49995   0.95126  -0.87910
O          O       0.25447   0.02691   0.97043  -0.88371
O          O       0.75447   0.97063   0.02692  -0.88312

