data_crystal

_audit_creation_method 'AiiDA-DDEC plugin'

_cell_length_a         6.94456
_cell_length_b        12.26368
_cell_length_c        18.45501

_cell_angle_alpha     89.79127
_cell_angle_beta     89.98690
_cell_angle_gamma     89.98598

_symmetry_space_group_name_Hall 'P 1'
_symmetry_space_group_name_H-M  'P 1'

loop_
_symmetry_equiv_pos_as_xyz
 'x,y,z'

loop_
_atom_site_label
_atom_site_type_symbol
_atom_site_fract_x
_atom_site_fract_y
_atom_site_fract_z
_atom_site_charge
Sr         Sr      0.24972   0.07704   0.50996   1.52187
Sr         Sr      0.75043   0.42164   0.00884   1.52248
Sr         Sr      0.75027   0.92296   0.49003   1.52199
Sr         Sr      0.24956   0.57835   0.99116   1.52253
H          H       0.94085   0.83765   0.32772   0.09925
H          H       0.94197   0.75337   0.20366   0.13028
H          H       0.05766   0.66376   0.82767   0.10003
H          H       0.05677   0.74618   0.70268   0.12873
H          H       0.44180   0.16253   0.67248   0.09965
H          H       0.44335   0.24677   0.79650   0.12976
H          H       0.55953   0.33629   0.17237   0.09901
H          H       0.55822   0.25316   0.29717   0.12964
H          H       0.05914   0.16234   0.67227   0.09913
H          H       0.05802   0.24663   0.79633   0.13017
H          H       0.94233   0.33623   0.17232   0.10032
H          H       0.94322   0.25381   0.29732   0.12898
H          H       0.55819   0.83746   0.32752   0.09939
H          H       0.55663   0.75322   0.20349   0.12965
H          H       0.44046   0.66370   0.82763   0.09935
H          H       0.44177   0.74683   0.70283   0.12980
C          C       0.07501   0.81788   0.30090  -0.09937
C          C       0.07456   0.77188   0.23215  -0.10173
C          C       0.92371   0.68312   0.80049  -0.10005
C          C       0.92408   0.72834   0.73135  -0.10053
C          C       0.57611   0.18222   0.69921  -0.09939
C          C       0.57597   0.22823   0.76798  -0.10109
C          C       0.42536   0.31683   0.19946  -0.09976
C          C       0.42542   0.27132   0.26863  -0.10194
C          C       0.92498   0.18211   0.69910  -0.09937
C          C       0.92542   0.22811   0.76785  -0.10213
C          C       0.07628   0.31688   0.19951  -0.10001
C          C       0.07590   0.27165   0.26865  -0.10056
C          C       0.42387   0.81778   0.30079  -0.09948
C          C       0.42402   0.77177   0.23202  -0.10120
C          C       0.57463   0.68316   0.80054  -0.09977
C          C       0.57457   0.72867   0.73137  -0.10187
C          C       0.24913   0.89169   0.40922   0.62779
C          C       0.24947   0.84061   0.33607  -0.05173
C          C       0.24852   0.69721   0.12360   0.55195
C          C       0.24917   0.74821   0.19766  -0.00112
C          C       0.75101   0.61004   0.90926   0.62732
C          C       0.74920   0.66063   0.83580  -0.04995
C          C       0.75090   0.80242   0.62224   0.55100
C          C       0.74946   0.75176   0.69669  -0.00080
C          C       0.75086   0.10831   0.59077   0.62751
C          C       0.75051   0.15938   0.66392  -0.05167
C          C       0.75147   0.30278   0.87640   0.55189
C          C       0.75082   0.25178   0.80234  -0.00111
C          C       0.24898   0.38995   0.09073   0.62712
C          C       0.25078   0.33936   0.16419  -0.04993
C          C       0.24908   0.19757   0.37776   0.55102
C          C       0.25053   0.24824   0.30331  -0.00077
O          O       0.08767   0.91524   0.43950  -0.70716
O          O       0.08629   0.67624   0.09403  -0.64661
O          O       0.91357   0.58621   0.93854  -0.70715
O          O       0.91341   0.82116   0.59216  -0.64460
O          O       0.58997   0.08482   0.56023  -0.70334
O          O       0.58949   0.32383   0.90617  -0.64730
O          O       0.40898   0.41298   0.05911  -0.70614
O          O       0.41063   0.17426   0.40728  -0.64899
O          O       0.91232   0.08475   0.56050  -0.70729
O          O       0.91369   0.32375   0.90597  -0.64699
O          O       0.08641   0.41378   0.06146  -0.70664
O          O       0.08658   0.17884   0.40784  -0.64419
O          O       0.41002   0.91517   0.43977  -0.70384
O          O       0.41050   0.67616   0.09383  -0.64763
O          O       0.59100   0.58701   0.94089  -0.70592
O          O       0.58936   0.82574   0.59272  -0.64850

