data_crystal

_audit_creation_method 'AiiDA-DDEC plugin'

_cell_length_a         8.59357
_cell_length_b        10.07056
_cell_length_c         9.74652

_cell_angle_alpha     69.43130
_cell_angle_beta     90.84264
_cell_angle_gamma     85.22867

_symmetry_space_group_name_Hall 'P 1'
_symmetry_space_group_name_H-M  'P 1'

loop_
_symmetry_equiv_pos_as_xyz
 'x,y,z'

loop_
_atom_site_label
_atom_site_type_symbol
_atom_site_fract_x
_atom_site_fract_y
_atom_site_fract_z
_atom_site_charge
Ca         Ca      0.50489   0.88615   0.87440   1.40618
Ca         Ca      0.49510   0.11386   0.12559   1.40618
Ca         Ca      0.50000  -0.00000   0.49998   1.47400
H          H       0.26499   0.75171   0.49530   0.14413
H          H       0.27466   0.32348   0.49208   0.13378
H          H       0.48910   0.40227   0.85736   0.11901
H          H       0.27174   0.47248   0.23658   0.08268
H          H       0.08597   0.44123   0.31302   0.09034
H          H       0.23340   0.53533   0.98254   0.11624
H          H       0.08933   0.68052   0.74433   0.10372
H          H       0.79109   0.88780   0.97162   0.07844
H          H       0.92533   0.73716   0.20876   0.12001
H          H       0.73500   0.24830   0.50471   0.14407
H          H       0.72534   0.67652   0.50792   0.13386
H          H       0.51090   0.59773   0.14264   0.11900
H          H       0.72825   0.52752   0.76342   0.08274
H          H       0.91403   0.55877   0.68698   0.09027
H          H       0.76659   0.46468   0.01746   0.11629
H          H       0.91066   0.31948   0.25567   0.10391
H          H       0.20891   0.11220   0.02838   0.07835
H          H       0.07467   0.26285   0.79125   0.11994
C          C       0.42609   0.69008   0.75205   0.57773
C          C       0.38365   0.58679   0.68303  -0.02705
C          C       0.30151   0.63864   0.54737  -0.17946
C          C       0.26342   0.54600   0.47602   0.25476
C          C       0.30586   0.39954   0.54197  -0.21380
C          C       0.38756   0.34812   0.67964  -0.03716
C          C       0.42617   0.44030   0.75115  -0.13267
C          C       0.43371   0.19306   0.74652   0.63368
C          C       0.16073   0.52519   0.25455  -0.02968
C          C       0.08479   0.62326   0.11102   0.09083
C          C       0.13464   0.61143   0.97939  -0.14330
C          C       0.05510   0.69200   0.84674  -0.08971
C          C       0.92478   0.78692   0.84229  -0.04816
C          C       0.82774   0.85358   0.70106   0.59252
C          C       0.88302   0.80579   0.97360  -0.11995
C          C       0.96062   0.72431   0.10703  -0.13111
C          C       0.57391   0.30992   0.24796   0.57767
C          C       0.61634   0.41321   0.31697  -0.02689
C          C       0.69849   0.36136   0.45263  -0.17950
C          C       0.73658   0.45400   0.52398   0.25467
C          C       0.69414   0.60046   0.45803  -0.21375
C          C       0.61244   0.65189   0.32037  -0.03707
C          C       0.57382   0.55970   0.24885  -0.13279
C          C       0.56628   0.80694   0.25347   0.63364
C          C       0.83927   0.47481   0.74545  -0.02952
C          C       0.91521   0.37674   0.88898   0.09074
C          C       0.86535   0.38858   0.02061  -0.14321
C          C       0.94489   0.30801   0.15327  -0.08976
C          C       0.07521   0.21308   0.15770  -0.04851
C          C       0.17222   0.14643   0.29899   0.59307
C          C       0.11697   0.19422   0.02640  -0.11988
C          C       0.03938   0.27569   0.89297  -0.13116
O          O       0.86925   0.83391   0.58772  -0.51743
O          O       0.69375   0.92448   0.70843  -0.77074
O          O       0.18790   0.61168   0.34225  -0.19455
O          O       0.38327   0.82416   0.68238  -0.70131
O          O       0.50083   0.64797   0.87534  -0.58921
O          O       0.42071   0.11286   0.67162  -0.64523
O          O       0.48476   0.13746   0.88193  -0.71052
O          O       0.13072   0.16608   0.41225  -0.51700
O          O       0.30625   0.07553   0.29158  -0.77135
O          O       0.81210   0.38833   0.65775  -0.19463
O          O       0.61673   0.17584   0.31762  -0.70141
O          O       0.49916   0.35203   0.12466  -0.58920
O          O       0.57929   0.88715   0.32838  -0.64527
O          O       0.51523   0.86254   0.11808  -0.71050

