data_crystal

_audit_creation_method 'AiiDA-DDEC plugin'

_cell_length_a        10.21893
_cell_length_b        13.38368
_cell_length_c        15.37346

_cell_angle_alpha     101.29446
_cell_angle_beta     107.59405
_cell_angle_gamma     98.54154

_symmetry_space_group_name_Hall 'P 1'
_symmetry_space_group_name_H-M  'P 1'

loop_
_symmetry_equiv_pos_as_xyz
 'x,y,z'

loop_
_atom_site_label
_atom_site_type_symbol
_atom_site_fract_x
_atom_site_fract_y
_atom_site_fract_z
_atom_site_charge
Ba         Ba      0.53187   0.81763   0.48586   1.57776
Ba         Ba      0.08766   0.92879   0.38724   1.54350
Ba         Ba      0.46812   0.18236   0.51414   1.57773
Ba         Ba      0.91233   0.07121   0.61276   1.54340
H          H       0.76530   0.77368   0.91254   0.14317
H          H       0.79588   0.45705   0.91124   0.15258
H          H       0.14997   0.01608   0.02967   0.13997
H          H       0.01128   0.79041   0.75787   0.12607
H          H       0.67615   0.54656   0.64784   0.13427
H          H       0.53667   0.60312   0.92720   0.12953
H          H       0.40856   0.89545   0.01929   0.12474
H          H       0.79553   0.01129   0.25597   0.10482
H          H       0.44938   0.70464   0.18355   0.10478
H          H       0.66814   0.95312   0.08108   0.10248
H          H       0.36450   0.63473   0.00887   0.10148
H          H       0.04559   0.14308   0.84647   0.35614
H          H       0.83688   0.82325   0.46316   0.37544
H          H       0.87931   0.81340   0.57006   0.42086
H          H       0.68942   0.89345   0.73136   0.35843
H          H       0.72316   0.24366   0.73413   0.36483
H          H       0.09522   0.48341   0.81962   0.36521
H          H       0.23469   0.22632   0.08746   0.14318
H          H       0.20411   0.54295   0.08876   0.15262
H          H       0.85002   0.98391   0.97033   0.13997
H          H       0.98871   0.20958   0.24213   0.12617
H          H       0.32384   0.45344   0.35216   0.13419
H          H       0.46333   0.39688   0.07280   0.12953
H          H       0.59143   0.10455   0.98071   0.12478
H          H       0.20446   0.98870   0.74403   0.10500
H          H       0.55061   0.29535   0.81645   0.10467
H          H       0.33185   0.04687   0.91892   0.10266
H          H       0.63549   0.36526   0.99113   0.10129
H          H       0.95440   0.85691   0.15353   0.35611
H          H       0.16311   0.17675   0.53684   0.37550
H          H       0.12068   0.18660   0.42994   0.42097
H          H       0.31057   0.10655   0.26864   0.35844
H          H       0.27683   0.75634   0.26587   0.36486
H          H       0.90477   0.51659   0.18038   0.36520
C          C       0.78079   0.61694   0.92006   0.24788
C          C       0.15642   0.76093   0.97557  -0.07180
C          C       0.75492   0.69453   0.87265  -0.18403
C          C       0.09790   0.73287   0.87910  -0.06352
C          C       0.71613   0.66867   0.77386  -0.04748
C          C       0.77276   0.51538   0.87196  -0.16237
C          C       0.13256   0.93703   0.98678  -0.17360
C          C       0.73446   0.49034   0.77319  -0.02764
C          C       0.05576   0.81085   0.83460  -0.09046
C          C       0.07236   0.91225   0.88799  -0.05389
C          C       0.17647   0.85988   0.03110   0.21696
C          C       0.91862   0.70460   0.20733   0.61685
C          C       0.70560   0.56657   0.72422  -0.08506
C          C       0.46089   0.95079   0.25608  -0.16512
C          C       0.07669   0.62521   0.81698   0.57415
C          C       0.57245   0.63403   0.00331  -0.19931
C          C       0.37142   0.95186   0.31776   0.63754
C          C       0.71546   0.65541   0.05673   0.22585
C          C       0.71717   0.38145   0.71943   0.61434
C          C       0.66655   0.70953   0.20159  -0.05399
C          C       0.76406   0.69109   0.15554  -0.16032
C          C       0.70786   0.75304   0.30659   0.62047
C          C       0.39061   0.91945   0.15797   0.23520
C          C       0.68533   0.74828   0.72050   0.60105
C          C       0.46449   0.92051   0.09487  -0.19174
C          C       0.03548   0.99349   0.83729   0.59613
C          C       0.69422   0.01481   0.39407   0.58675
C          C       0.60895   0.98336   0.29064  -0.04239
C          C       0.68199   0.98460   0.22693  -0.12254
C          C       0.52311   0.68937   0.14739  -0.12097
C          C       0.61061   0.95337   0.13006  -0.05212
C          C       0.47640   0.65130   0.04973  -0.06543
C          C       0.21920   0.38306   0.07994   0.24799
C          C       0.84357   0.23906   0.02443  -0.07177
C          C       0.24507   0.30547   0.12735  -0.18413
C          C       0.90209   0.26713   0.12090  -0.06358
C          C       0.28386   0.33132   0.22614  -0.04734
C          C       0.22723   0.48462   0.12804  -0.16252
C          C       0.86743   0.06297   0.01322  -0.17356
C          C       0.26553   0.50966   0.22681  -0.02759
C          C       0.94423   0.18915   0.16540  -0.09069
C          C       0.92763   0.08774   0.11201  -0.05369
C          C       0.82352   0.14012   0.96890   0.21676
C          C       0.08137   0.29540   0.79267   0.61682
C          C       0.29439   0.43343   0.27578  -0.08505
C          C       0.53910   0.04920   0.74392  -0.16541
C          C       0.92330   0.37479   0.18302   0.57432
C          C       0.42754   0.36597   0.99669  -0.19939
C          C       0.62857   0.04814   0.68224   0.63774
C          C       0.28453   0.34459   0.94327   0.22596
C          C       0.28282   0.61855   0.28057   0.61435
C          C       0.33344   0.29047   0.79841  -0.05407
C          C       0.23593   0.30891   0.84446  -0.16026
C          C       0.29213   0.24696   0.69341   0.62055
C          C       0.60938   0.08055   0.84203   0.23557
C          C       0.31466   0.25172   0.27950   0.60100
C          C       0.53550   0.07949   0.90513  -0.19183
C          C       0.96451   0.00651   0.16271   0.59603
C          C       0.30577   0.98519   0.60593   0.58687
C          C       0.39104   0.01663   0.70936  -0.04248
C          C       0.31800   0.01540   0.77307  -0.12230
C          C       0.47688   0.31063   0.85261  -0.12114
C          C       0.38938   0.04663   0.86994  -0.05222
C          C       0.52359   0.34870   0.95027  -0.06542
O          O       0.07126   0.09005   0.89042  -0.47443
O          O       0.97972   0.96908   0.74943  -0.57817
O          O       0.83181   0.85311   0.52861  -0.85030
O          O       0.64230   0.72709   0.63263  -0.58017
O          O       0.70736   0.84419   0.77466  -0.47222
O          O       0.74592   0.31726   0.77480  -0.44869
O          O       0.67512   0.35332   0.63172  -0.57937
O          O       0.81996   0.64092   0.01785  -0.20722
O          O       0.83873   0.79125   0.35729  -0.63640
O          O       0.60962   0.75200   0.34095  -0.64208
O          O       0.96179   0.63197   0.23940  -0.51232
O          O       0.00016   0.79286   0.21614  -0.62704
O          O       0.24513   0.88878   0.12890  -0.19573
O          O       0.11827   0.55637   0.86564  -0.47872
O          O       0.02576   0.60607   0.73081  -0.45436
O          O       0.33080   0.86953   0.34125  -0.64250
O          O       0.62878   0.01665   0.45439  -0.70997
O          O       0.82775   0.03795   0.41892  -0.63471
O          O       0.33041   0.03572   0.34094  -0.64099
O          O       0.92873   0.90994   0.10958  -0.47432
O          O       0.02027   0.03091   0.25057  -0.57820
O          O       0.16819   0.14689   0.47139  -0.85046
O          O       0.35769   0.27291   0.36737  -0.58017
O          O       0.29263   0.15581   0.22534  -0.47230
O          O       0.25407   0.68273   0.22520  -0.44880
O          O       0.32487   0.64668   0.36828  -0.57927
O          O       0.18003   0.35907   0.98215  -0.20707
O          O       0.16126   0.20874   0.64271  -0.63610
O          O       0.39037   0.24800   0.65905  -0.64241
O          O       0.03820   0.36803   0.76060  -0.51232
O          O      -0.00017   0.20714   0.78386  -0.62679
O          O       0.75486   0.11122   0.87110  -0.19599
O          O       0.88172   0.44363   0.13436  -0.47872
O          O       0.97423   0.39393   0.26919  -0.45439
O          O       0.66919   0.13047   0.65875  -0.64274
O          O       0.37121   0.98335   0.54561  -0.71026
O          O       0.17224   0.96205   0.58108  -0.63443
O          O       0.66959   0.96427   0.65906  -0.64109

