data_crystal

_audit_creation_method 'AiiDA-DDEC plugin'

_cell_length_a         8.13807
_cell_length_b         8.19910
_cell_length_c         9.98185

_cell_angle_alpha     50.20979
_cell_angle_beta     66.05405
_cell_angle_gamma     75.84694

_symmetry_space_group_name_Hall 'P 1'
_symmetry_space_group_name_H-M  'P 1'

loop_
_symmetry_equiv_pos_as_xyz
 'x,y,z'

loop_
_atom_site_label
_atom_site_type_symbol
_atom_site_fract_x
_atom_site_fract_y
_atom_site_fract_z
_atom_site_charge
Ca         Ca      0.30978   0.39368   0.98894   1.43843
Ca         Ca      0.69022   0.60632   0.01106   1.43842
H          H       0.22005   0.32800   0.36944   0.12531
H          H       0.66036   0.58016   0.38039   0.34904
H          H       0.68139   0.06821   0.86163   0.36125
H          H       0.88833   0.16763   0.15772   0.13628
H          H       0.77995   0.67200   0.63057   0.12532
H          H       0.33965   0.41984   0.61961   0.34909
H          H       0.31861   0.93179   0.13838   0.36129
H          H       0.11168   0.83237   0.84228   0.13616
C          C       0.92175   0.43613   0.27841   0.62955
C          C       0.95759   0.46357   0.39726  -0.16276
C          C       0.12412   0.40549   0.42514  -0.20295
C          C       0.82997   0.55944   0.47474   0.28459
C          C       0.65747   0.20509   0.00489   0.59873
C          C       0.83130   0.09595   0.00629  -0.14260
C          C       0.93669   0.09607   0.08739  -0.19457
C          C       0.89482   0.99551   0.92033   0.28586
C          C       0.07826   0.56387   0.72160   0.62955
C          C       0.04241   0.53643   0.60275  -0.16276
C          C       0.87589   0.59451   0.57486  -0.20294
C          C       0.17003   0.44056   0.52526   0.28460
C          C       0.34253   0.79491   0.99512   0.59892
C          C       0.16871   0.90405   0.99372  -0.14286
C          C       0.06331   0.90393   0.91261  -0.19452
C          C       0.10518   0.00449   0.07968   0.28584
O          O       0.04333   0.36680   0.19783  -0.66172
O          O       0.76551   0.48980   0.25758  -0.63860
O          O       0.56601   0.20209   0.92727  -0.58755
O          O       0.59708   0.30210   0.07727  -0.67504
O          O       0.66560   0.62065   0.45443  -0.44724
O          O       0.79166   0.98127   0.84835  -0.49614
O          O       0.95667   0.63321   0.80217  -0.66169
O          O       0.23450   0.51020   0.74243  -0.63847
O          O       0.43399   0.79791   0.07273  -0.58737
O          O       0.40292   0.69791   0.92273  -0.67528
O          O       0.33440   0.37935   0.54557  -0.44719
O          O       0.20834   0.01873   0.15165  -0.49597

