data_crystal

_audit_creation_method 'AiiDA-DDEC plugin'

_cell_length_a        10.23931
_cell_length_b        16.01598
_cell_length_c        16.03180

_cell_angle_alpha     84.12174
_cell_angle_beta     71.34200
_cell_angle_gamma     71.34063

_symmetry_space_group_name_Hall 'P 1'
_symmetry_space_group_name_H-M  'P 1'

loop_
_symmetry_equiv_pos_as_xyz
 'x,y,z'

loop_
_atom_site_label
_atom_site_type_symbol
_atom_site_fract_x
_atom_site_fract_y
_atom_site_fract_z
_atom_site_charge
Al         Al      0.33612   0.92050   0.56006   1.67016
Al         Al      0.81636   0.07996   0.44001   1.66990
Al         Al      0.00627   0.06008   0.57986   1.66681
Al         Al      0.64615   0.94045   0.42024   1.66849
Al         Al      0.41340   0.57997   0.93979   1.66854
Al         Al      0.93421   0.42013   0.05968   1.66707
Al         Al      0.74398   0.44004   0.91998   1.66796
Al         Al      0.10320   0.56034   0.07976   1.66961
H          H       0.51763   0.36503   0.28468   0.10223
H          H       0.52878   0.37931   0.39113   0.13103
H          H       0.38051   0.45105   0.35607   0.10289
H          H       0.43331   0.03611   0.72289   0.13868
H          H       0.01219   0.22913   0.76892   0.13497
H          H       0.29894   0.24839   0.90712   0.13491
H          H       0.73252   0.53049   0.02740   0.41895
H          H       0.16698   0.63595   0.71498   0.10230
H          H       0.29933   0.62133   0.60878   0.13186
H          H       0.18812   0.54935   0.64396   0.10372
H          H       0.19361   0.96343   0.27795   0.13972
H          H       0.00844   0.77293   0.23025   0.13573
H          H       0.45403   0.75197   0.09255   0.13417
H          H       0.29038   0.46927   0.97311   0.41996
H          H       0.63197   0.78447   0.13556   0.10148
H          H       0.65847   0.89076   0.12072   0.13188
H          H       0.58190   0.85563   0.04923   0.10374
H          H       0.22076   0.22256   0.46329   0.13805
H          H       0.99031   0.26925   0.27173   0.13507
H          H       0.29603   0.40813   0.25202   0.13436
H          H       0.01354   0.52712   0.96884   0.41974
H          H       0.55253   0.21480   0.86422   0.10174
H          H       0.67045   0.10847   0.87868   0.13079
H          H       0.48705   0.14354   0.95047   0.10319
H          H       0.90707   0.77746   0.53643   0.13897
H          H       0.53115   0.73093   0.72787   0.13468
H          H       0.95578   0.59283   0.74846   0.13499
H          H       0.50915   0.47249   0.03008   0.41864
H          H       0.23315   0.13568   0.21465   0.10298
H          H       0.22186   0.12104   0.10852   0.13285
H          H       0.37008   0.04924   0.14368   0.10444
H          H       0.31526   0.46357   0.77738   0.13945
H          H       0.73752   0.27138   0.73081   0.13470
H          H       0.45106   0.25187   0.59244   0.13432
H          H       0.01883   0.96939   0.47271   0.41977
H          H       0.58197   0.86440   0.78499   0.10147
H          H       0.44950   0.87895   0.89111   0.13243
H          H       0.56098   0.95074   0.85604   0.10273
H          H       0.55635   0.53660   0.22245   0.13954
H          H       0.74036   0.72795   0.26975   0.13408
H          H       0.29512   0.74830   0.40759   0.13432
H          H       0.46019   0.03064   0.52736   0.41820
H          H       0.11770   0.71541   0.36434   0.10263
H          H       0.09132   0.60908   0.37923   0.13174
H          H       0.16789   0.64431   0.45080   0.10274
H          H       0.53112   0.27729   0.03583   0.13955
H          H       0.75981   0.23097   0.22825   0.13474
H          H       0.45314   0.09294   0.24798   0.13480
H          H       0.73725   0.97295   0.53042   0.41877
H          H       0.19731   0.28499   0.63527   0.10218
H          H       0.07913   0.39139   0.62101   0.13225
H          H       0.26244   0.35637   0.54909   0.10301
H          H       0.84246   0.72237   0.96343   0.13859
H          H       0.21760   0.76959   0.77173   0.13529
H          H       0.79228   0.90749   0.75201   0.13411
H          H       0.24038   0.02752   0.46956   0.41860
C          C       0.14697   0.24605   0.84164  -0.02471
C          C       0.35385   0.09568   0.75558  -0.19646
C          C       0.03347   0.32306   0.89258   0.63898
C          C       0.55842   0.14610   0.88317  -0.18713
C          C       0.28077   0.21427   0.85878  -0.21767
C          C       0.11613   0.20386   0.78142  -0.12817
C          C       0.19097   0.07606   0.67849   0.62624
C          C       0.21984   0.12700   0.73980  -0.04059
C          C       0.38604   0.13999   0.81368   0.24529
C          C       0.23364   0.75467   0.15782  -0.02185
C          C       0.20539   0.90444   0.24469  -0.19726
C          C       0.24729   0.67771   0.10690   0.63585
C          C       0.58831   0.85320   0.11657  -0.18818
C          C       0.35322   0.78610   0.14085  -0.21580
C          C       0.10049   0.79728   0.21802  -0.13122
C          C       0.94505   0.92471   0.32115   0.62687
C          C       0.08635   0.87374   0.25999  -0.04016
C          C       0.33977   0.86002   0.18629   0.24510
C          C       0.14207   0.34212   0.25423  -0.02171
C          C       0.19971   0.25561   0.40416  -0.19440
C          C       0.10504   0.39293   0.17724   0.63472
C          C       0.45464   0.38369   0.35338  -0.18677
C          C       0.24410   0.35947   0.28588  -0.21656
C          C       0.06939   0.28170   0.29658  -0.13073
C          C       0.01611   0.17888   0.42448   0.62735
C          C       0.09648   0.23994   0.37329  -0.04116
C          C       0.27600   0.31388   0.35971   0.24428
C          C       0.73824   0.65817   0.74560  -0.02241
C          C       0.85979   0.74465   0.59572  -0.19457
C          C       0.67509   0.60724   0.82255   0.63652
C          C       0.19186   0.61679   0.64641  -0.18997
C          C       0.88933   0.64111   0.71419  -0.21760
C          C       0.64761   0.71849   0.70314  -0.12895
C          C       0.61991   0.82171   0.57556   0.62642
C          C       0.70994   0.76041   0.62666  -0.04327
C          C       0.94983   0.68631   0.64009   0.24330
C          C       0.60317   0.25430   0.65794  -0.02153
C          C       0.39537   0.40422   0.74458  -0.19626
C          C       0.71747   0.17739   0.60710   0.63463
C          C       0.19120   0.35375   0.61646  -0.18850
C          C       0.46928   0.28597   0.64078  -0.21432
C          C       0.63349   0.29644   0.71842  -0.13090
C          C       0.55908   0.42395   0.82147   0.62487
C          C       0.52952   0.37305   0.76036  -0.04107
C          C       0.36352   0.36002   0.68616   0.24196
C          C       0.51549   0.74567   0.34239  -0.02103
C          C       0.54421   0.59580   0.25551  -0.19647
C          C       0.50142   0.82250   0.39370   0.63764
C          C       0.16130   0.64674   0.38350  -0.18845
C          C       0.39598   0.71415   0.35932  -0.21680
C          C       0.64861   0.70331   0.28196  -0.13048
C          C       0.80442   0.57603   0.17837   0.62502
C          C       0.66303   0.62680   0.23986  -0.04036
C          C       0.40971   0.64013   0.31391   0.24295
C          C       0.60782   0.15837   0.24558  -0.02312
C          C       0.55120   0.24453   0.09528  -0.19678
C          C       0.64470   0.10741   0.32255   0.63717
C          C       0.29625   0.11664   0.14606  -0.19274
C          C       0.50564   0.14128   0.21392  -0.21646
C          C       0.68096   0.21854   0.20318  -0.12907
C          C       0.73439   0.32123   0.07534   0.62889
C          C       0.65412   0.26018   0.12640  -0.04258
C          C       0.47464   0.18643   0.13971   0.24391
C          C       0.01035   0.84230   0.75432  -0.02221
C          C       0.88941   0.75536   0.90417  -0.19601
C          C       0.07339   0.89348   0.67755   0.63717
C          C       0.55713   0.88332   0.85362  -0.18784
C          C       0.85928   0.85917   0.78593  -0.21502
C          C       0.10118   0.78192   0.79657  -0.13201
C          C       0.12996   0.67858   0.92375   0.62500
C          C       0.03922   0.73985   0.87304  -0.03956
C          C       0.79911   0.81370   0.85993   0.24488
O          O       0.04478   0.33754   0.96654  -0.59085
O          O       0.28443   0.00073   0.65485  -0.61690
O          O       0.07821   0.11048   0.65397  -0.58446
O          O       0.93313   0.36697   0.85967  -0.58520
O          O       0.19160   0.99174   0.51323  -1.00278
O          O       0.52189   0.10466   0.82172  -0.16742
O          O       0.34687   0.66298   0.03284  -0.58991
O          O       0.93933   0.00002   0.34474  -0.61629
O          O       0.84203   0.89044   0.34561  -0.58549
O          O       0.15781   0.63389   0.13985  -0.58380
O          O       0.69598   0.00879   0.48694  -1.00282
O          O       0.44892   0.89490   0.17822  -0.16851
O          O       0.13009   0.46712   0.16259  -0.58984
O          O       0.03410   0.15518   0.49970  -0.61548
O          O       0.93711   0.15465   0.39044  -0.58626
O          O       0.04902   0.35975   0.13331  -0.58274
O          O       0.93387   0.01315   0.50810  -1.00436
O          O       0.37724   0.32173   0.39452  -0.16860
O          O       0.76033   0.53339   0.83743  -0.58910
O          O       0.68988   0.84564   0.50063  -0.61396
O          O       0.48244   0.84573   0.60935  -0.58605
O          O       0.54156   0.63997   0.86622  -0.58472
O          O       0.45470   0.98706   0.49168  -1.00221
O          O       0.09382   0.67823   0.60489  -0.16626
O          O       0.70639   0.16233   0.53334  -0.58879
O          O       0.46598   0.49931   0.84514  -0.61531
O          O       0.67227   0.38969   0.84566  -0.58457
O          O       0.81835   0.13398   0.63981  -0.58404
O          O       0.55823   0.50828   0.98660  -1.00337
O          O       0.22756   0.39518   0.67809  -0.16533
O          O       0.40099   0.83736   0.46733  -0.58941
O          O       0.81078   0.50056   0.15468  -0.61598
O          O       0.90707   0.61065   0.15397  -0.58386
O          O       0.59120   0.86620   0.36160  -0.58641
O          O       0.05331   0.49187   0.01316  -1.00391
O          O       0.30073   0.60510   0.32195  -0.16596
O          O       0.61805   0.03363   0.33759  -0.59069
O          O       0.71732   0.34444  -0.00019  -0.61787
O          O       0.81243   0.34590   0.10980  -0.58466
O          O       0.70188   0.14007   0.36612  -0.58447
O          O       0.81693   0.48681   0.99148  -1.00311
O          O       0.37428   0.17813   0.10446  -0.16515
O          O       0.98771   0.96718   0.66269  -0.58932
O          O       0.06055   0.65532  -0.00070  -0.61597
O          O       0.26727   0.65395   0.88899  -0.58483
O          O       0.20703   0.86127   0.63402  -0.58574
O          O       0.29475   0.51354   0.00847  -1.00458
O          O       0.65511   0.82169   0.89509  -0.16802

