data_crystal

_audit_creation_method 'AiiDA-DDEC plugin'

_cell_length_a         6.68176
_cell_length_b        11.17521
_cell_length_c        11.06661

_cell_angle_alpha     70.97502
_cell_angle_beta     73.31559
_cell_angle_gamma     71.43409

_symmetry_space_group_name_Hall 'P 1'
_symmetry_space_group_name_H-M  'P 1'

loop_
_symmetry_equiv_pos_as_xyz
 'x,y,z'

loop_
_atom_site_label
_atom_site_type_symbol
_atom_site_fract_x
_atom_site_fract_y
_atom_site_fract_z
_atom_site_charge
Al         Al     -0.00448  -0.00059   0.00965   1.66495
Al         Al      0.49160   0.00453   0.01323   1.67224
H          H       0.35965   0.87094   0.42876   0.13302
H          H       0.13725   0.60312   0.09759   0.13287
H          H       0.61610   0.09624   0.60860   0.14153
H          H       0.85954   0.41600   0.86221   0.13769
H          H       0.41779   0.19923   0.30644   0.38271
H          H       0.74654   0.75571   0.97652   0.36191
H          H       0.16777   0.68954   0.72758   0.35322
H          H       0.00027   0.27690   0.24757   0.36544
H          H       0.19302   0.16245   0.92839   0.44043
H          H       0.71008   0.91918   0.17580   0.43553
C          C       0.05609   0.99298   0.38352  -0.05181
C          C       0.84393   0.05714   0.43388  -0.05830
C          C       0.19857   0.92283   0.46798  -0.10895
C          C       0.12806   0.99141   0.24318   0.63691
C          C       0.70008   0.15340   0.34514   0.60002
C          C       0.44824   0.63598   0.99722  -0.04142
C          C       0.65347   0.58424   0.92512  -0.05042
C          C       0.29840   0.55897   0.05062  -0.10061
C          C       0.36936   0.77040   0.01804   0.64890
C          C       0.83704   0.64870   0.85662   0.58676
C          C       0.92710   0.98464   0.65045  -0.03940
C          C       0.13790   0.91859   0.60096  -0.03207
C          C       0.77978   0.04932   0.56736  -0.08096
C          C       0.85889   0.99528   0.78816   0.63697
C          C       0.30646   0.83619   0.68159   0.58678
C          C       0.55916   0.37614   0.97944  -0.05420
C          C       0.35106   0.43021   0.04315  -0.03017
C          C       0.70243   0.45552   0.91656  -0.05719
C          C       0.62971   0.23473   0.98409   0.64028
C          C       0.17453   0.35979   0.09349   0.59697
O          O       0.97920   0.00482   0.18508  -0.61152
O          O       0.32972   0.97371   0.19437  -0.60120
O          O       0.75072   0.25272   0.26894  -0.48132
O          O       0.51027   0.12750   0.36163  -0.44561
O          O       0.51007   0.82733   0.01701  -0.58984
O          O       0.16849   0.81972   0.04176  -0.55208
O          O       0.95881   0.62476   0.75519  -0.45809
O          O       0.88087   0.72258   0.91387  -0.47041
O          O       0.01024   0.98017   0.84405  -0.58135
O          O       0.65760   0.02354   0.83732  -0.58745
O          O       0.30132   0.71037   0.73291  -0.47581
O          O       0.44981   0.87671   0.69032  -0.46216
O          O       0.47845   0.17674   0.01366  -0.61843
O          O       0.83105   0.18142   0.96160  -0.58186
O          O       0.13958   0.30529   0.22411  -0.49580
O          O       0.06344   0.36097   0.02280  -0.46487
O          O       0.23853   0.06726   0.95048  -0.98367
O          O       0.74341   0.93877   0.08100  -0.98817

