data_crystal

_audit_creation_method 'AiiDA-DDEC plugin'

_cell_length_a         6.71616
_cell_length_b         9.04979
_cell_length_c        10.09453

_cell_angle_alpha     104.01297
_cell_angle_beta     101.07451
_cell_angle_gamma     110.18173

_symmetry_space_group_name_Hall 'P 1'
_symmetry_space_group_name_H-M  'P 1'

loop_
_symmetry_equiv_pos_as_xyz
 'x,y,z'

loop_
_atom_site_label
_atom_site_type_symbol
_atom_site_fract_x
_atom_site_fract_y
_atom_site_fract_z
_atom_site_charge
Ca         Ca      0.70110   0.45942   0.88670   1.40924
Ca         Ca      0.29891   0.54058   0.11330   1.40925
H          H       0.53966   0.27952   0.55460   0.38454
H          H       0.16432   0.91886   0.76297   0.13796
H          H       0.17702   0.89744   0.33285   0.13071
H          H       0.69947   0.48796   0.40398   0.12759
H          H       0.46034   0.72048   0.44539   0.38454
H          H       0.83568   0.08114   0.23702   0.13798
H          H       0.82298   0.10256   0.66715   0.13063
H          H       0.30053   0.51204   0.59602   0.12757
C          C       0.92564   0.69402   0.59395  -0.03173
C          C       0.93128   0.68283   0.35230  -0.05350
C          C       0.10047   0.85331   0.64799  -0.06957
C          C       0.36862   0.09862   0.61165   0.60461
C          C       0.10692   0.84125   0.40632  -0.09080
C          C       0.83248   0.61680   0.69612   0.57364
C          C       0.84857   0.59436   0.19461   0.60850
C          C       0.83879   0.60990   0.44589  -0.07913
C          C       0.18980   0.92766   0.55406  -0.06150
C          C       0.07436   0.30598   0.40605  -0.03172
C          C       0.06872   0.31717   0.64770  -0.05350
C          C       0.89954   0.14669   0.35201  -0.06959
C          C       0.63138   0.90138   0.38835   0.60453
C          C       0.89308   0.15874   0.59368  -0.09076
C          C       0.16752   0.38320   0.30388   0.57359
C          C       0.15143   0.40564   0.80538   0.60847
C          C       0.16121   0.39010   0.55410  -0.07911
C          C       0.81021   0.07234   0.44594  -0.06141
O          O       0.67411   0.46893   0.64677  -0.65451
O          O       0.98921   0.61993   0.12399  -0.65135
O          O       0.43111   0.15736   0.51087  -0.47570
O          O       0.64203   0.49726   0.13260  -0.65328
O          O       0.44943   0.17868   0.74252  -0.56999
O          O       0.91069   0.69726   0.82928  -0.58573
O          O       0.32589   0.53107   0.35323  -0.65452
O          O       0.01079   0.38007   0.87601  -0.65137
O          O       0.56890   0.84264   0.48913  -0.47572
O          O       0.35798   0.50274   0.86740  -0.65326
O          O       0.55057   0.82132   0.25748  -0.56995
O          O       0.08931   0.30274   0.17071  -0.58567

