data_crystal

_audit_creation_method 'AiiDA-DDEC plugin'

_cell_length_a         6.37284
_cell_length_b        14.57331
_cell_length_c        15.07916

_cell_angle_alpha     90.00766
_cell_angle_beta     90.00495
_cell_angle_gamma     89.99641

_symmetry_space_group_name_Hall 'P 1'
_symmetry_space_group_name_H-M  'P 1'

loop_
_symmetry_equiv_pos_as_xyz
 'x,y,z'

loop_
_atom_site_label
_atom_site_type_symbol
_atom_site_fract_x
_atom_site_fract_y
_atom_site_fract_z
_atom_site_charge
Ca         Ca      0.14021   0.79929   0.46358   1.43769
Ca         Ca      0.36061   0.20061   0.96336   1.43755
Ca         Ca      0.86056   0.29933   0.03668   1.43728
Ca         Ca      0.64026   0.70065   0.53645   1.43762
H          H       0.14989   0.66643   0.75764   0.11694
H          H       0.10923   0.54678   0.87509   0.11379
H          H       0.11627   0.50005   0.48296   0.11642
H          H       0.11883   0.33586   0.44213   0.10691
H          H       0.12859   0.21576   0.55982   0.10721
H          H       0.13668   0.26074   0.71837   0.11310
H          H       0.34959   0.33343   0.25750   0.11714
H          H       0.39101   0.45320   0.37487   0.11359
H          H       0.38384   0.49971   0.98271   0.11641
H          H       0.38161   0.66388   0.94186   0.10641
H          H       0.37123   0.78410   0.05948   0.10727
H          H       0.36332   0.73923   0.21808   0.11378
H          H       0.84962   0.16657   0.74248   0.11710
H          H       0.89099   0.04678   0.62515   0.11344
H          H       0.88389   0.00031   0.01728   0.11647
H          H       0.88165   0.83616   0.05816   0.10630
H          H       0.87130   0.71593   0.94055   0.10723
H          H       0.86336   0.76077   0.78195   0.11356
H          H       0.65002   0.83345   0.24245   0.11683
H          H       0.60919   0.95310   0.12496   0.11380
H          H       0.61636  -0.00006   0.51710   0.11664
H          H       0.61881   0.16416   0.55787   0.10679
H          H       0.62866   0.28423   0.44013   0.10736
H          H       0.63677   0.23917   0.28159   0.11350
C          C       0.13911   0.64490   0.58370   0.61873
C          C       0.11146   0.36780   0.86004   0.62271
C          C       0.13446   0.56981   0.65064  -0.09523
C          C       0.13819   0.59438   0.73947  -0.10822
C          C       0.12039   0.52701   0.80567  -0.10440
C          C       0.11960   0.43449   0.78412  -0.06127
C          C       0.12627   0.40632   0.69309   0.05539
C          C       0.12377   0.47553   0.62483   0.04791
C          C       0.12018   0.44777   0.53434  -0.14330
C          C       0.12118   0.35603   0.51163  -0.08963
C          C       0.12597   0.28793   0.57844  -0.08806
C          C       0.12859   0.31254   0.66681  -0.13767
C          C       0.36072   0.35469   0.08361   0.61790
C          C       0.38896   0.63226   0.35991   0.62235
C          C       0.36474   0.42997   0.15044  -0.09695
C          C       0.36124   0.40548   0.23929  -0.10810
C          C       0.37928   0.47294   0.30547  -0.10381
C          C       0.38045   0.56547   0.28398  -0.06198
C          C       0.37353   0.59358   0.19292   0.05608
C          C       0.37581   0.52428   0.12464   0.04935
C          C       0.37967   0.55200   0.03413  -0.14399
C          C       0.37895   0.64375   0.01138  -0.08933
C          C       0.37413   0.71192   0.07816  -0.08712
C          C       0.37138   0.68736   0.16656  -0.13932
C          C       0.86072   0.14532   0.91638   0.61761
C          C       0.88909   0.86775   0.64010   0.62240
C          C       0.86463   0.07004   0.84956  -0.09695
C          C       0.86113   0.09452   0.76070  -0.10796
C          C       0.87923   0.02705   0.69454  -0.10332
C          C       0.88040   0.93452   0.71604  -0.06190
C          C       0.87343   0.90642   0.80711   0.05570
C          C       0.87566   0.97574   0.87537   0.04946
C          C       0.87959   0.94802   0.96588  -0.14390
C          C       0.87893   0.85628   0.98864  -0.08911
C          C       0.87409   0.78810   0.92187  -0.08775
C          C       0.87134   0.81265   0.83347  -0.13872
C          C       0.63910   0.85503   0.41634   0.61917
C          C       0.61129   0.13213   0.13992   0.62283
C          C       0.63444   0.93013   0.34941  -0.09576
C          C       0.63821   0.90551   0.26059  -0.10794
C          C       0.62038   0.97288   0.19436  -0.10408
C          C       0.61953   0.06542   0.21583  -0.06127
C          C       0.62622   0.09361   0.30686   0.05485
C          C       0.62373   0.02442   0.37518   0.04880
C          C       0.62014   0.05221   0.46568  -0.14408
C          C       0.62114   0.14397   0.48837  -0.08947
C          C       0.62595   0.21204   0.42152  -0.08794
C          C       0.62860   0.18739   0.33315  -0.13816
O          O       0.99016   0.65237   0.52722  -0.65902
O          O       0.29100   0.70240   0.58536  -0.66270
O          O       0.99176   0.38891   0.92462  -0.65165
O          O       0.22625   0.29606   0.85679  -0.65528
O          O       0.50984   0.34754   0.02719  -0.65811
O          O       0.20963   0.29677   0.08530  -0.66222
O          O       0.50832   0.61104   0.42460  -0.65243
O          O       0.27445   0.70405   0.35667  -0.65464
O          O       0.00987   0.15246   0.97280  -0.65834
O          O       0.70962   0.20323   0.91471  -0.66187
O          O       0.00865   0.88895   0.57548  -0.65217
O          O       0.77449   0.79599   0.64327  -0.65502
O          O       0.49015   0.84759   0.47281  -0.65911
O          O       0.79093   0.79748   0.41464  -0.66300
O          O       0.49202   0.11095   0.07523  -0.65189
O          O       0.72553   0.20403   0.14331  -0.65525

