data_crystal

_cell_length_a                         30.778999
_cell_length_b                         6.632300
_cell_length_c                         15.589000
_cell_angle_alpha                      90.000000
_cell_angle_beta                       90.000000
_cell_angle_gamma                      90.000000

_space_group_name_Hall                 'P 1'
_space_group_name_H-M_alt              'P 1'

loop_
_symmetry_equiv_pos_as_xyz
 'x,y,z'

loop_
_atom_site_label
_atom_site_occupancy
_atom_site_fract_x
_atom_site_fract_y
_atom_site_fract_z
_atom_site_charge
_atom_site_type_symbol
O1	1	0.300546	2.63425	0.805702	-0.611467	O
O2	1	0.8945	2.957397	1.663479	-0.613536	O
O3	1	0.877191	2.983538	0.838225	-0.587484	O
O4	1	0.317086	2.607615	1.630689	-0.586873	O
O5	1	0.881538	2.625743	1.635399	-0.61042	O
O6	1	0.314756	2.965173	0.833808	-0.611338	O
O7	1	0.3007	2.934457	1.660247	-0.599288	O
O8	1	0.89388	2.656662	0.809252	-0.598596	O
O9	1	0.800408	3.15672	0.806064	-0.600889	O
O10	1	0.393898	2.434356	1.659431	-0.598694	O
O11	1	0.381393	2.465879	0.831504	-0.612929	O
O12	1	0.814896	3.125195	1.634478	-0.613403	O
O13	1	0.377384	3.107485	1.630562	-0.587794	O
O14	1	0.816812	2.483223	0.835537	-0.586296	O
O15	1	0.801952	2.458185	1.659781	-0.612303	O
O16	1	0.394245	3.133368	0.805454	-0.611353	O
O17	1	0.375191	2.78656	0.734291	-0.99163	O
O18	1	0.819739	2.804264	0.733719	-0.989779	O
O19	1	0.875452	2.304435	0.734496	-0.991367	O
O20	1	0.319481	2.286646	0.734695	-0.991405	O
Al1	1	0.348067	2.535588	0.731386	1.669079	Al
Al2	1	0.846875	3.055408	0.736441	1.66974	Al
Al3	1	0.848454	2.555747	0.735936	1.668833	Al
Al4	1	0.346723	3.035579	0.731783	1.669317	Al
H1	1	0.400569	2.790415	0.77113	0.430759	H
H2	1	0.794639	2.800314	0.696133	0.429637	H
H3	1	0.901173	2.299452	0.698634	0.43011	H
H4	1	0.294255	2.29128	0.771932	0.431109	H
H5	1	0.137043	2.822873	1.015737	0.111464	H
H6	1	1.058066	2.779201	1.452777	0.11138	H
H7	1	1.057459	2.831902	1.016389	0.11275	H
H8	1	0.137623	2.769901	1.452128	0.11204	H
H9	1	0.637459	2.323144	1.015549	0.112231	H
H10	1	0.557739	2.26224	1.451651	0.111874	H
H11	1	0.557906	2.316015	1.015268	0.110975	H
H12	1	0.637314	2.269505	1.451937	0.111557	H
H13	1	0.247191	2.783865	1.233189	0.115796	H
H14	1	0.947901	2.816736	1.235338	0.115667	H
H15	1	0.747299	2.305621	1.233962	0.116293	H
H16	1	0.447905	2.279574	1.233161	0.11614	H
H17	1	0.446426	3.004279	1.357243	0.113618	H
H18	1	0.400012	2.997399	1.488746	0.124782	H
H19	1	0.455311	2.559845	1.570844	0.125221	H
H20	1	0.503875	2.5619	1.442199	0.115147	H
H21	1	0.796248	3.024047	1.489029	0.12108	H
H22	1	0.750114	3.027964	1.357387	0.114747	H
H23	1	0.6896	2.577318	1.443523	0.119362	H
H24	1	0.737511	2.577923	1.572688	0.117789	H
H25	1	0.294894	2.500258	1.488307	0.125121	H
H26	1	0.248589	2.50963	1.356588	0.113827	H
H27	1	0.191519	3.067201	1.442567	0.118118	H
H28	1	0.239946	3.062549	1.571528	0.125452	H
H29	1	0.739505	3.028678	0.895309	0.124824	H
H30	1	0.691367	3.024055	1.024595	0.11777	H
H31	1	0.748588	2.581704	1.11008	0.114163	H
H32	1	0.794562	2.591181	0.978001	0.124614	H
H33	1	0.236639	2.513174	0.894172	0.118194	H
H34	1	0.188958	2.51377	1.023751	0.119246	H
H35	1	0.250167	3.061166	1.110207	0.115189	H
H36	1	0.296144	3.064806	0.978341	0.121597	H
H37	1	1.003894	2.531882	1.026834	0.117211	H
H38	1	0.955225	2.531873	0.898247	0.124973	H
H39	1	0.899561	3.094181	0.979525	0.125641	H
H40	1	0.94608	3.089392	1.11096	0.113986	H
H41	1	0.945489	2.537966	1.357723	0.115092	H
H42	1	0.899881	2.529533	1.490066	0.121782	H
H43	1	0.958402	3.08242	1.575508	0.118349	H
H44	1	1.005776	3.086415	1.445501	0.119315	H
H45	1	0.505734	3.009019	1.023098	0.119183	H
H46	1	0.458437	3.011389	0.893078	0.117862	H
H47	1	0.399674	2.564616	0.977469	0.121388	H
H48	1	0.445197	2.557705	1.109894	0.115182	H
C1	1	0.296866	2.79525	0.850238	0.631483	C
C2	1	0.898816	2.796877	1.618906	0.633332	C
C3	1	0.896532	2.817372	0.854144	0.633077	C
C4	1	0.297961	2.774426	1.614954	0.633299	C
C5	1	0.797629	2.316729	0.851417	0.633875	C
C6	1	0.39671	2.273695	1.614564	0.632474	C
C7	1	0.398628	2.295236	0.849029	0.634381	C
C8	1	0.797592	2.295555	1.616687	0.635415	C
C9	1	0.11951	2.812622	1.076112	-0.133517	C
C10	1	1.07559	2.789507	1.392396	-0.133481	C
C11	1	1.075124	2.817695	1.076466	-0.132204	C
C12	1	0.119972	2.784275	1.392044	-0.131946	C
C13	1	0.619868	2.309115	1.075718	-0.13137	C
C14	1	0.575339	2.27602	1.391476	-0.130381	C
C15	1	0.575477	2.305096	1.075577	-0.133528	C
C16	1	0.619735	2.280116	1.391624	-0.134727	C
C17	1	0.189875	2.789045	1.154929	0.018973	C
C18	1	1.005229	2.812593	1.313575	0.018699	C
C19	1	1.004911	2.809837	1.156321	0.022236	C
C20	1	0.19018	2.79138	1.312173	0.022047	C
C21	1	0.690197	2.299917	1.155163	0.02094	C
C22	1	0.505004	2.285111	1.311978	0.021889	C
C23	1	0.505144	2.283347	1.154646	0.01952	C
C24	1	0.690067	2.301711	1.312488	0.020331	C
C25	1	0.143838	2.79712	1.15409	0.027342	C
C26	1	1.051269	2.805074	1.314416	0.02646	C
C27	1	1.050977	2.807894	1.154841	0.025958	C
C28	1	0.14412	2.794072	1.313672	0.0271	C
C29	1	0.644116	2.29849	1.153949	0.027817	C
C30	1	0.551087	2.286403	1.313235	0.02674	C
C31	1	0.551207	2.289953	1.153643	0.027278	C
C32	1	0.644008	2.294974	1.313544	0.027116	C
C33	1	0.120801	2.798393	1.234069	-0.000114	C
C34	1	1.074305	2.803983	1.23444	0.001198	C
C35	1	0.620867	2.294559	1.23367	0.000246	C
C36	1	0.574344	2.290196	1.23352	-0.000276	C
C37	1	0.211835	2.787675	1.233394	-0.1904	C
C38	1	0.983261	2.813634	1.235116	-0.190119	C
C39	1	0.711938	2.302697	1.233887	-0.191491	C
C40	1	0.483268	2.282307	1.233233	-0.191044	C
C41	1	0.478785	3.283949	1.075104	0.082015	C
C42	1	0.482521	3.130534	1.013123	-0.14707	C
C43	1	0.456106	3.131375	0.940391	-0.090957	C
C44	1	0.426404	2.288861	0.927153	-0.059525	C
C45	1	0.422733	2.443135	0.988418	-0.090052	C
C46	1	0.448218	2.438789	1.062196	-0.144404	C
C47	1	0.478465	2.282645	1.391249	0.080488	C
C48	1	0.448555	3.125086	1.404272	-0.147544	C
C49	1	0.42256	3.120749	1.477365	-0.085432	C
C50	1	0.425147	2.277771	1.537514	-0.05911	C
C51	1	0.454266	2.437663	1.52435	-0.087375	C
C52	1	0.481196	2.438365	1.452403	-0.147347	C
C53	1	0.769602	2.300483	1.538845	-0.059725	C
C54	1	0.773079	3.145093	1.478073	-0.089375	C
C55	1	0.747249	3.14773	1.404755	-0.144656	C
C56	1	0.716539	2.30198	1.391873	0.081119	C
C57	1	0.712947	2.456338	1.453445	-0.146241	C
C58	1	0.739705	2.457205	1.525683	-0.091832	C
C59	1	0.269817	2.780246	1.537611	-0.059259	C
C60	1	0.272434	2.624017	1.477099	-0.086146	C
C61	1	0.246536	2.629777	1.403925	-0.146748	C
C62	1	0.216761	2.787999	1.391274	0.079323	C
C63	1	0.214096	2.943205	1.452648	-0.149918	C
C64	1	0.240913	2.941017	1.524709	-0.086941	C
C65	1	0.978295	2.811283	1.077225	0.078968	C
C66	1	0.981098	2.654879	1.016421	-0.147962	C
C67	1	0.954116	2.654388	0.944573	-0.087612	C
C68	1	0.92489	2.813732	0.931263	-0.060034	C
C69	1	0.922205	2.971311	0.991124	-0.086375	C
C70	1	0.948255	2.968209	1.064118	-0.147101	C
C71	1	0.769463	2.311099	0.928828	-0.058493	C
C72	1	0.740581	3.150333	0.942062	-0.086584	C
C73	1	0.71391	3.148129	1.014377	-0.149806	C
C74	1	0.716667	2.303246	1.075807	0.08073	C
C75	1	0.746411	2.461475	1.062795	-0.148543	C
C76	1	0.772145	2.467289	0.989356	-0.08513	C
C77	1	0.978919	2.811696	1.393101	0.083443	C
C78	1	0.948412	2.656476	1.405646	-0.144454	C
C79	1	0.922904	2.65128	1.47933	-0.0899	C
C80	1	0.926536	2.805014	1.540832	-0.059103	C
C81	1	0.956156	2.962933	1.527947	-0.091983	C
C82	1	0.982592	2.964674	1.455257	-0.147244	C
C83	1	0.269056	2.789558	0.928268	-0.058468	C
C84	1	0.239039	2.633361	0.941369	-0.091783	C
C85	1	0.212414	2.634256	1.013793	-0.146689	C
C86	1	0.216253	2.788197	1.075482	0.08153	C
C87	1	0.24712	2.941793	1.062708	-0.1446	C
C88	1	0.272845	2.944304	0.989286	-0.090454	C
