data_crystal

_audit_creation_method 'AiiDA-DDEC plugin'

_cell_length_a         7.03319
_cell_length_b         8.10964
_cell_length_c        10.29600

_cell_angle_alpha     98.63585
_cell_angle_beta     104.38461
_cell_angle_gamma     106.77294

_symmetry_space_group_name_Hall 'P 1'
_symmetry_space_group_name_H-M  'P 1'

loop_
_symmetry_equiv_pos_as_xyz
 'x,y,z'

loop_
_atom_site_label
_atom_site_type_symbol
_atom_site_fract_x
_atom_site_fract_y
_atom_site_fract_z
_atom_site_charge
Sr         Sr      0.29923   0.54368   0.61837   1.50521
Sr         Sr      0.70077   0.45631   0.38163   1.50523
H          H       0.81389   0.07994   0.18590   0.13195
H          H       0.81290   0.08169   0.76640   0.13349
H          H       0.28470   0.48736   0.10316   0.12488
H          H       0.43937   0.69368   0.96033   0.38006
H          H       0.18610   0.92005   0.81410   0.13191
H          H       0.18709   0.91831   0.23360   0.13350
H          H       0.71529   0.51264   0.89684   0.12499
H          H       0.56063   0.30631   0.03967   0.37999
C          C       0.05509   0.29461   0.15960  -0.05775
C          C       0.88033   0.13904   0.11205  -0.08856
C          C       0.79288   0.06124   0.97012  -0.05525
C          C       0.87970   0.14051   0.87667  -0.08204
C          C       0.05606   0.29344   0.92389  -0.03176
C          C       0.14501   0.36982   0.06588  -0.08779
C          C       0.14137   0.38185   0.31017   0.61153
C          C       0.61186   0.89456   0.91308   0.59964
C          C       0.15081   0.36763   0.82085   0.57525
C          C       0.94490   0.70538   0.84041  -0.05778
C          C       0.11967   0.86096   0.88795  -0.08860
C          C       0.20711   0.93876   0.02988  -0.05536
C          C       0.12029   0.85949   0.12333  -0.08202
C          C       0.94393   0.70656   0.07612  -0.03162
C          C       0.85498   0.63017   0.93412  -0.08779
C          C       0.85862   0.61815   0.68983   0.61146
C          C       0.38813   0.10544   0.08692   0.59956
C          C       0.84919   0.63237   0.17915   0.57500
O          O       0.33309   0.48335   0.36162  -0.68196
O          O       0.01772   0.35345   0.38358  -0.67132
O          O       0.54796   0.81744   0.00716  -0.46893
O          O       0.52862   0.83422   0.78617  -0.58828
O          O       0.06715   0.29185   0.69375  -0.59825
O          O       0.31661   0.50675   0.86392  -0.65013
O          O       0.66690   0.51665   0.63838  -0.68170
O          O       0.98227   0.64655   0.61642  -0.67152
O          O       0.45204   0.18256   0.99284  -0.46896
O          O       0.47137   0.16578   0.21383  -0.58820
O          O       0.93284   0.70815   0.30626  -0.59820
O          O       0.68338   0.49324   0.13609  -0.64987

