data_crystal

_audit_creation_method 'AiiDA-DDEC plugin'

_cell_length_a         9.93009
_cell_length_b         9.36543
_cell_length_c        18.17344

_cell_angle_alpha     95.04644
_cell_angle_beta     98.05449
_cell_angle_gamma     134.46670

_symmetry_space_group_name_Hall 'P 1'
_symmetry_space_group_name_H-M  'P 1'

loop_
_symmetry_equiv_pos_as_xyz
 'x,y,z'

loop_
_atom_site_label
_atom_site_type_symbol
_atom_site_fract_x
_atom_site_fract_y
_atom_site_fract_z
_atom_site_charge
Ca         Ca      0.57883   0.24227   0.04250   1.42352
Ca         Ca      0.69822   0.55729   0.46801   1.41822
Ca         Ca      0.42117   0.75774   0.95751   1.42347
Ca         Ca      0.30178   0.44271   0.53199   1.41822
Ca         Ca      0.82206   0.56525   0.25626   1.48214
Ca         Ca      0.17796   0.43476   0.74375   1.48213
H          H       0.40689   0.31866   0.27515   0.10514
H          H       0.12280   0.30761   0.06823   0.13332
H          H       0.04155   0.40789   0.28654   0.10679
H          H       0.50996   0.10469   0.21905   0.10480
H          H       0.73737   0.06117   0.42649   0.12921
H          H       0.65707   0.77103   0.20344   0.10940
H          H       0.59311   0.68135   0.72486   0.10513
H          H       0.87720   0.69239   0.93177   0.13328
H          H       0.95844   0.59211   0.71346   0.10674
H          H       0.49004   0.89531   0.78095   0.10475
H          H       0.26264   0.93883   0.57351   0.12926
H          H       0.34294   0.22898   0.79656   0.10945
C          C       0.31310   0.33118   0.24619  -0.10785
C          C       0.27836   0.31400   0.16676  -0.04747
C          C       0.07373   0.36776   0.17351  -0.04700
C          C       0.37911   0.29193   0.12080   0.60839
C          C       0.15287   0.32504   0.13001  -0.05538
C          C       0.95462   0.39939   0.13641   0.61805
C          C       0.24814   0.37018   0.37274   0.60657
C          C       0.10729   0.38192   0.25239  -0.08567
C          C       0.22303   0.35931   0.28884  -0.03956
C          C       0.56538   0.05051   0.24763  -0.12491
C          C       0.62863   0.10211   0.32829  -0.05271
C          C       0.70955   0.91113   0.31940  -0.04149
C          C       0.64745   0.25444   0.37732   0.59398
C          C       0.69198   0.02414   0.36399  -0.06196
C          C       0.80593   0.85538   0.35731   0.62443
C          C       0.49919   0.86138   0.11705   0.60041
C          C       0.64537   0.85927   0.23915  -0.08651
C          C       0.56768   0.92314   0.20299  -0.03538
C          C       0.68689   0.66884   0.75381  -0.10779
C          C       0.72165   0.68601   0.83324  -0.04745
C          C       0.92627   0.63223   0.82649  -0.04695
C          C       0.62089   0.70807   0.87920   0.60841
C          C       0.84712   0.67497   0.86998  -0.05529
C          C       0.04537   0.60061   0.86358   0.61793
C          C       0.75186   0.62984   0.62725   0.60674
C          C       0.89270   0.61808   0.74761  -0.08564
C          C       0.77696   0.64071   0.71116  -0.03970
C          C       0.43462   0.94950   0.75237  -0.12489
C          C       0.37138   0.89790   0.67171  -0.05264
C          C       0.29046   0.08888   0.68060  -0.04155
C          C       0.35256   0.74557   0.62268   0.59391
C          C       0.30802   0.97586   0.63601  -0.06206
C          C       0.19407   0.14461   0.64269   0.62456
C          C       0.50082   0.13863   0.88296   0.60048
C          C       0.35463   0.14073   0.76085  -0.08644
C          C       0.43232   0.07687   0.79701  -0.03547
O          O       0.54914   0.36682   0.15746  -0.77004
O          O       0.30730   0.20737   0.04990  -0.54716
O          O       0.93291   0.49350   0.18132  -0.74165
O          O       0.87734   0.33263   0.06453  -0.59289
O          O       0.13605   0.36000   0.40403  -0.59699
O          O       0.38319   0.39208   0.41241  -0.71026
O          O       0.69196   0.40272   0.34875  -0.74888
O          O       0.62956   0.24771   0.44430  -0.55592
O          O       0.88875   0.83051   0.31789  -0.69239
O          O       0.80149   0.83614   0.42542  -0.63411
O          O       0.46541   0.71295   0.08060  -0.58905
O          O       0.47970   0.96242   0.08185  -0.69912
O          O       0.45087   0.63318   0.84256  -0.76989
O          O       0.69272   0.79265   0.95011  -0.54733
O          O       0.06707   0.50648   0.81867  -0.74163
O          O       0.12266   0.66737   0.93546  -0.59284
O          O       0.86395   0.64001   0.59597  -0.59709
O          O       0.61681   0.60793   0.58759  -0.71026
O          O       0.30807   0.59729   0.65126  -0.74897
O          O       0.37043   0.75229   0.55570  -0.55581
O          O       0.11125   0.16949   0.68210  -0.69249
O          O       0.19852   0.16386   0.57458  -0.63409
O          O       0.53460   0.28706   0.91940  -0.58895
O          O       0.52030   0.03759   0.91815  -0.69922

