data_crystal

_cell_length_a 15.50970
_cell_length_b 15.50970
_cell_length_c 12.31970
_cell_angle_alpha 90.00000
_cell_angle_beta  90.00000
_cell_angle_gamma 90.00000

_symmetry_space_group_name_	'P 1'
_symmetry_space_group_name_H-M	'P 1'

loop_
_symmetry_equiv_pos_as_xyz
  x,y,z

loop_
_atom_site_label
_atom_site_type_symbol
_atom_site_fract_x
_atom_site_fract_y
_atom_site_fract_z
_atom_site_charge
O 	O 	0.61266 0.38321 0.61447 -0.55000
O 	O 	0.59174 0.29299 0.75728 -0.54500
C 	C 	0.58679 0.36123 0.70627 0.42600
C 	C 	0.53618 0.43098 0.76877 -0.07300
C 	C 	0.52791 0.42723 0.88193 -0.05900
H 	H 	0.54118 0.37258 0.91603 0.07600
O 	O 	0.11266 0.88321 0.11447 -0.57000
O 	O 	0.09174 0.79299 0.25728 -0.55900
C 	C 	0.08679 0.86123 0.20627 0.43600
C 	C 	0.03618 0.93098 0.26877 -0.09600
C 	C 	0.02791 0.92723 0.38193 0.01400
H 	H 	0.04118 0.87258 0.41603 0.03400
O 	O 	0.88734 0.11679 0.11447 -0.57400
O 	O 	0.90826 0.20701 0.25728 -0.56000
C 	C 	0.91321 0.13877 0.20627 0.43600
C 	C 	0.96382 0.06902 0.26877 -0.10500
C 	C 	0.97209 0.07277 0.38193 0.00400
H 	H 	0.95882 0.12742 0.41603 0.03600
O 	O 	0.38734 0.61679 0.61447 -0.54900
O 	O 	0.40826 0.70701 0.75728 -0.54200
C 	C 	0.41321 0.63877 0.70627 0.42700
C 	C 	0.46382 0.56902 0.76877 -0.07200
C 	C 	0.47209 0.57277 0.88193 -0.05900
H 	H 	0.45882 0.62742 0.91603 0.07800
O 	O 	0.61679 0.11266 0.86447 -0.60000
O 	O 	0.70701 0.09174 0.00728 -0.66700
C 	C 	0.63877 0.08679 0.95627 0.66200
C 	C 	0.56902 0.03618 0.01877 -0.39600
C 	C 	0.57277 0.02791 0.13193 0.15800
H 	H 	0.62742 0.04118 0.16603 -0.01800
O 	O 	0.11679 0.61266 0.36447 -0.56000
O 	O 	0.20701 0.59174 0.50728 -0.55600
C 	C 	0.13877 0.58679 0.45627 0.44200
C 	C 	0.06902 0.53618 0.51877 -0.12000
C 	C 	0.07277 0.52791 0.63193 0.02300
H 	H 	0.12742 0.54118 0.66603 0.03100
O 	O 	0.88321 0.38734 0.36447 -0.55800
O 	O 	0.79299 0.40826 0.50728 -0.55400
C 	C 	0.86123 0.41321 0.45627 0.44100
C 	C 	0.93098 0.46382 0.51877 -0.11400
C 	C 	0.92723 0.47209 0.63193 0.03000
H 	H 	0.87258 0.45882 0.66603 0.03100
O 	O 	0.38321 0.88734 0.86447 -0.59400
O 	O 	0.29299 0.90826 0.00728 -0.66500
C 	C 	0.36123 0.91321 0.95627 0.66400
C 	C 	0.43098 0.96382 0.01877 -0.38400
C 	C 	0.42723 0.97209 0.13193 0.17600
H 	H 	0.37258 0.95882 0.16603 -0.01900
O 	O 	0.88734 0.38321 0.13553 -0.50500
O 	O 	0.90826 0.29299 0.99272 -0.43400
C 	C 	0.91321 0.36123 0.04373 0.20500
C 	C 	0.96382 0.43098 0.98123 0.19900
C 	C 	0.97209 0.42723 0.86807 -0.16900
H 	H 	0.95882 0.37258 0.83397 0.09600
O 	O 	0.38734 0.88321 0.63553 -0.54100
O 	O 	0.40826 0.79299 0.49272 -0.55100
C 	C 	0.41321 0.86123 0.54373 0.42800
C 	C 	0.46382 0.93098 0.48123 -0.07100
C 	C 	0.47209 0.92723 0.36807 -0.02200
H 	H 	0.45882 0.87258 0.33397 0.04500
O 	O 	0.61266 0.11679 0.63553 -0.54800
O 	O 	0.59174 0.20701 0.49272 -0.55300
C 	C 	0.58679 0.13877 0.54373 0.42900
C 	C 	0.53618 0.06902 0.48123 -0.08600
C 	C 	0.52791 0.07277 0.36807 -0.03900
H 	H 	0.54118 0.12742 0.33397 0.04700
O 	O 	0.11266 0.61679 0.13553 -0.50700
O 	O 	0.09174 0.70701 0.99272 -0.43400
C 	C 	0.08679 0.63877 0.04373 0.20600
C 	C 	0.03618 0.56902 0.98123 0.19300
C 	C 	0.02791 0.57277 0.86807 -0.17600
H 	H 	0.04118 0.62742 0.83397 0.09700
O 	O 	0.88321 0.11266 0.88553 -0.52500
O 	O 	0.79299 0.09174 0.74272 -0.54700
C 	C 	0.86123 0.08679 0.79373 0.42900
C 	C 	0.93098 0.03618 0.73123 -0.08500
C 	C 	0.92723 0.02791 0.61807 -0.00700
H 	H 	0.87258 0.04118 0.58397 0.03900
O 	O 	0.38321 0.61266 0.38553 -0.55700
O 	O 	0.29299 0.59174 0.24272 -0.56500
C 	C 	0.36123 0.58679 0.29373 0.44600
C 	C 	0.43098 0.53618 0.23123 -0.13800
C 	C 	0.42723 0.52791 0.11807 0.04400
H 	H 	0.37258 0.54118 0.08397 0.00200
O 	O 	0.61679 0.38734 0.38553 -0.55700
O 	O 	0.70701 0.40826 0.24272 -0.56400
C 	C 	0.63877 0.41321 0.29373 0.44600
C 	C 	0.56902 0.46382 0.23123 -0.13800
C 	C 	0.57277 0.47209 0.11807 0.04400
H 	H 	0.62742 0.45882 0.08397 0.00300
O 	O 	0.11679 0.88734 0.88553 -0.52000
O 	O 	0.20701 0.90826 0.74272 -0.54300
C 	C 	0.13877 0.91321 0.79373 0.42800
C 	C 	0.06902 0.96382 0.73123 -0.07500
C 	C 	0.07277 0.97209 0.61807 0.00400
H 	H 	0.12742 0.95882 0.58397 0.04000
In	In	0.68809 0.31191 0.50000 2.00900
In	In	0.18809 0.81191 -0.00000 1.99100
In	In	0.81191 0.18809 -0.00000 1.99100
In	In	0.31191 0.68809 0.50000 2.00900
In	In	0.68809 0.18809 0.75000 2.01100
In	In	0.18809 0.68809 0.25000 2.00700
In	In	0.81191 0.31191 0.25000 2.00700
In	In	0.31191 0.81191 0.75000 2.01100
O 	O 	0.75815 0.25000 0.62500 -0.95700
H 	H 	0.81264 0.25000 0.62500 0.34600
O 	O 	0.25815 0.75000 0.12500 -0.96900
H 	H 	0.31264 0.75000 0.12500 0.33800
O 	O 	0.74185 0.25000 0.12500 -0.96900
H 	H 	0.68736 0.25000 0.12500 0.33800
O 	O 	0.24185 0.75000 0.62500 -0.95700
H 	H 	0.18736 0.75000 0.62500 0.34600
O 	O 	0.75000 0.25815 0.87500 -0.94000
H 	H 	0.75000 0.31264 0.87500 0.35300
O 	O 	0.25000 0.75815 0.37500 -0.95900
H 	H 	0.25000 0.81264 0.37500 0.34700
O 	O 	0.75000 0.24185 0.37500 -0.95900
H 	H 	0.75000 0.18736 0.37500 0.34500
O 	O 	0.25000 0.74185 0.87500 -0.93900
H 	H 	0.25000 0.68736 0.87500 0.35200
C 	C 	0.50000 0.50000 0.71164 0.02600
C 	C 	0.50000 0.50000 0.93959 0.11700
H 	H 	0.50000 0.50000 0.63078 0.05800
C 	C 	0.00000 0.00000 0.21164 0.02300
C 	C 	0.00000 0.00000 0.43959 -0.03400
H 	H 	0.00000 0.00000 0.13078 0.03600
C 	C 	0.50000 -0.00000 0.96164 0.37500
C 	C 	0.50000 -0.00000 0.18959 -0.15500
H 	H 	0.50000 0.00000 0.88078 -0.04300
C 	C 	-0.00000 0.50000 0.46164 0.05500
C 	C 	-0.00000 0.50000 0.68959 -0.06700
H 	H 	-0.00000 0.50000 0.38078 0.04200
C 	C 	-0.00000 0.50000 0.03836 -0.30900
C 	C 	-0.00000 0.50000 0.81041 0.12000
H 	H 	-0.00000 0.50000 0.11922 0.14500
C 	C 	0.50000 -0.00000 0.53836 0.01200
C 	C 	0.50000 0.00000 0.31041 0.03000
H 	H 	0.50000 0.00000 0.61922 0.06000
C 	C 	-0.00000 0.00000 0.78836 0.00900
C 	C 	0.00000 0.00000 0.56041 -0.02400
H 	H 	0.00000 0.00000 0.86922 0.06800
C 	C 	0.50000 0.50000 0.28836 0.07300
C 	C 	0.50000 0.50000 0.06041 -0.13100
H 	H 	0.50000 0.50000 0.36922 0.04200
