data_crystal

_audit_creation_method 'AiiDA-DDEC plugin'

_cell_length_a        13.40392
_cell_length_b        19.57498
_cell_length_c        23.62847

_cell_angle_alpha     106.29901
_cell_angle_beta     90.00000
_cell_angle_gamma     90.00000

_symmetry_space_group_name_Hall 'P 1'
_symmetry_space_group_name_H-M  'P 1'

loop_
_symmetry_equiv_pos_as_xyz
 'x,y,z'

loop_
_atom_site_label
_atom_site_type_symbol
_atom_site_fract_x
_atom_site_fract_y
_atom_site_fract_z
_atom_site_charge
Ba         Ba      0.24433   0.32343   0.73370   1.56827
Ba         Ba      0.07050   0.16449   0.81253   1.53733
Ba         Ba      0.56281   0.32360   0.67161   1.55132
Ba         Ba      0.54717   0.53131   0.62955   1.55264
Ba         Ba      0.32901   0.84759   0.81687   1.58794
Ba         Ba      0.55177   0.02203   0.62350   1.52676
Ba         Ba      0.74433   0.67658   0.76630   1.56839
Ba         Ba      0.57050   0.83552   0.68748   1.53732
Ba         Ba      0.06281   0.67640   0.82840   1.55138
Ba         Ba      0.04717   0.46870   0.87046   1.55243
Ba         Ba      0.82900   0.15242   0.68313   1.58791
Ba         Ba      0.05177   0.97798   0.87650   1.52673
Ba         Ba      0.75567   0.67658   0.26630   1.56835
Ba         Ba      0.92950   0.83552   0.18747   1.53730
Ba         Ba      0.43719   0.67640   0.32839   1.55142
Ba         Ba      0.45283   0.46869   0.37046   1.55254
Ba         Ba      0.67099   0.15242   0.18313   1.58792
Ba         Ba      0.44823   0.97798   0.37650   1.52675
Ba         Ba      0.25567   0.32343   0.23370   1.56832
Ba         Ba      0.42950   0.16449   0.31253   1.53734
Ba         Ba      0.93719   0.32360   0.17161   1.55132
Ba         Ba      0.95283   0.53131   0.12955   1.55261
Ba         Ba      0.17100   0.84759   0.31687   1.58792
Ba         Ba      0.94823   0.02202   0.12350   1.52672
H          H       0.78155   0.36191   0.49691   0.11185
H          H       0.86428   0.24749   0.43949   0.10242
H          H       0.76476   0.13460   0.41782   0.09980
H          H       0.29415   0.16821   0.55686   0.09880
H          H       0.18146   0.23867   0.51079   0.10173
H          H       0.25573   0.31628   0.45407   0.11404
H          H       0.46723   0.45347   0.85142   0.11473
H          H       0.47337   0.55168   0.94613   0.11170
H          H       0.41730   0.67407   0.94565   0.11017
H          H       0.14214   0.54148   0.64943   0.10992
H          H       0.21751   0.62957   0.60254   0.10773
H          H       0.36795   0.69752   0.64713   0.11370
H          H       0.43457   0.24970   0.92753   0.11322
H          H       0.52597   0.15360   0.95754   0.11507
H          H       0.53551   0.03182   0.88633   0.10573
H          H       0.16438   0.96291   0.68636   0.10906
H          H       0.19753   0.00867   0.59875   0.10961
H          H       0.31413   0.10964   0.60902   0.11281
H          H       0.78358   0.62859   0.63929   0.38105
H          H       0.78871   0.54959   0.64435   0.38576
H          H       0.31664   0.82116   0.65469   0.38306
H          H       0.32900   0.89737   0.69594   0.39548
H          H       0.15229   0.85760   0.91479   0.37815
H          H       0.21441   0.91528   0.96005   0.41613
H          H       0.28155   0.63809   0.00309   0.11161
H          H       0.36428   0.75251   0.06051   0.10242
H          H       0.26476   0.86541   0.08219   0.10003
H          H       0.79415   0.83179   0.94315   0.09887
H          H       0.68146   0.76133   0.98921   0.10165
H          H       0.75573   0.68373   0.04593   0.11390
H          H       0.96723   0.54654   0.64858   0.11496
H          H       0.97337   0.44833   0.55388   0.11145
H          H       0.91730   0.32593   0.55435   0.10981
H          H       0.64214   0.45852   0.85057   0.11021
H          H       0.71751   0.37043   0.89746   0.10797
H          H       0.86796   0.30249   0.85287   0.11374
H          H       0.93457   0.75031   0.57248   0.11283
H          H       0.02597   0.84641   0.54247   0.11480
H          H       0.03551   0.96819   0.61367   0.10583
H          H       0.66437   0.03710   0.81365   0.10925
H          H       0.69753   0.99133   0.90126   0.10992
H          H       0.81413   0.89037   0.89098   0.11287
H          H       0.28358   0.37142   0.86072   0.38094
H          H       0.28872   0.45042   0.85565   0.38591
H          H       0.81664   0.17884   0.84531   0.38362
H          H       0.82900   0.10264   0.80407   0.39514
H          H       0.65229   0.14241   0.58522   0.37824
H          H       0.71441   0.08472   0.53996   0.41581
H          H       0.21845   0.63809   0.50309   0.11158
H          H       0.13572   0.75251   0.56052   0.10245
H          H       0.23524   0.86541   0.58219   0.10007
H          H       0.70585   0.83179   0.44314   0.09889
H          H       0.81854   0.76133   0.48921   0.10169
H          H       0.74427   0.68373   0.54593   0.11396
H          H       0.53277   0.54653   0.14858   0.11491
H          H       0.52663   0.44833   0.05388   0.11156
H          H       0.58270   0.32593   0.05435   0.10991
H          H       0.85786   0.45852   0.35057   0.11017
H          H       0.78249   0.37043   0.39746   0.10790
H          H       0.63205   0.30249   0.35287   0.11372
H          H       0.56543   0.75031   0.07248   0.11291
H          H       0.47403   0.84641   0.04246   0.11483
H          H       0.46449   0.96819   0.11367   0.10588
H          H       0.83563   0.03710   0.31365   0.10921
H          H       0.80247   0.99133   0.40125   0.10982
H          H       0.68587   0.89036   0.39098   0.11278
H          H       0.21642   0.37142   0.36071   0.38100
H          H       0.21129   0.45041   0.35565   0.38591
H          H       0.68336   0.17884   0.34531   0.38348
H          H       0.67100   0.10264   0.30407   0.39512
H          H       0.84771   0.14241   0.08521   0.37826
H          H       0.78559   0.08472   0.03996   0.41594
H          H       0.71845   0.36191   0.99691   0.11187
H          H       0.63572   0.24749   0.93949   0.10239
H          H       0.73524   0.13460   0.91782   0.09974
H          H       0.20585   0.16821   0.05686   0.09880
H          H       0.31854   0.23867   0.01079   0.10171
H          H       0.24427   0.31628   0.95407   0.11399
H          H       0.03277   0.45347   0.35142   0.11478
H          H       0.02663   0.55168   0.44612   0.11159
H          H       0.08270   0.67407   0.44565   0.10998
H          H       0.35786   0.54148   0.14943   0.11002
H          H       0.28249   0.62957   0.10254   0.10788
H          H       0.13205   0.69751   0.14713   0.11377
H          H       0.06543   0.24970   0.42753   0.11318
H          H       0.97403   0.15360   0.45754   0.11493
H          H       0.96449   0.03182   0.38633   0.10572
H          H       0.33563   0.96291   0.18635   0.10905
H          H       0.30247   0.00867   0.09875   0.10974
H          H       0.18587   0.10964   0.10902   0.11283
H          H       0.71642   0.62858   0.13929   0.38106
H          H       0.71128   0.54959   0.14435   0.38576
H          H       0.18336   0.82116   0.15469   0.38322
H          H       0.17100   0.89737   0.19593   0.39543
H          H       0.34771   0.85760   0.41479   0.37821
H          H       0.28559   0.91528   0.46005   0.41598
C          C       0.58162   0.25166   0.48496   0.04840
C          C       0.64123   0.31354   0.50215  -0.06144
C          C       0.74106   0.31178   0.48393  -0.09736
C          C       0.78644   0.24848   0.45276  -0.09961
C          C       0.73065   0.18578   0.43957  -0.13206
C          C       0.62866   0.18756   0.45344  -0.08042
C          C       0.47191   0.25197   0.49715   0.04088
C          C       0.42893   0.20852   0.52934  -0.08715
C          C       0.32495   0.20364   0.53328  -0.11618
C          C       0.26204   0.24280   0.50730  -0.09575
C          C       0.30353   0.28630   0.47577  -0.10490
C          C       0.40729   0.29022   0.47019  -0.05930
C          C       0.60790   0.38262   0.54450   0.58823
C          C       0.57178   0.11908   0.43172   0.57945
C          C       0.49209   0.16653   0.55986   0.58879
C          C       0.44658   0.33316   0.43132   0.58637
C          C       0.37569   0.58810   0.80068   0.05421
C          C       0.41130   0.51990   0.80051  -0.07838
C          C       0.44331   0.50720   0.85327  -0.11093
C          C       0.44660   0.56193   0.90581  -0.08871
C          C       0.41528   0.62973   0.90582  -0.08336
C          C       0.37662   0.64243   0.85458  -0.06588
C          C       0.33363   0.60146   0.74621   0.03954
C          C       0.24717   0.56409   0.72091  -0.07739
C          C       0.20630   0.57348   0.66911  -0.11241
C          C       0.24827   0.62249   0.64309  -0.08537
C          C       0.33209   0.66152   0.66854  -0.13489
C          C       0.37611   0.65069   0.71935  -0.11560
C          C       0.42092   0.45904   0.74528   0.59053
C          C       0.33613   0.71567   0.86017   0.58472
C          C       0.19672   0.51394   0.75004   0.61071
C          C       0.47336   0.68856   0.74016   0.62600
C          C       0.39521   0.11320   0.80346   0.05923
C          C       0.38907   0.18163   0.84386  -0.07204
C          C       0.43938   0.19596   0.89808  -0.08854
C          C       0.49057   0.14255   0.91445  -0.10058
C          C       0.49610   0.07471   0.87495  -0.09483
C          C       0.45250   0.06015   0.81889  -0.08037
C          C       0.33672   0.09141   0.74770   0.04385
C          C       0.26494   0.03710   0.74271  -0.10814
C          C       0.21656   0.00627   0.68898  -0.12596
C          C       0.23355   0.03264   0.64089  -0.06915
C          C       0.29854   0.08988   0.64671  -0.12837
C          C       0.35222   0.11855   0.69903  -0.09301
C          C       0.32647   0.24126   0.83375   0.59131
C          C       0.47358   0.98784   0.77664   0.59902
C          C       0.22952   0.01540   0.79566   0.58644
C          C       0.43026   0.17468   0.69873   0.60325
C          C       0.08162   0.74834   0.01505   0.04856
C          C       0.14123   0.68647   0.99785  -0.06169
C          C       0.24106   0.68823   0.01607  -0.09720
C          C       0.28644   0.75152   0.04724  -0.09949
C          C       0.23065   0.81422   0.06044  -0.13211
C          C       0.12866   0.81244   0.04656  -0.08045
C          C       0.97191   0.74804   0.00285   0.04092
C          C       0.92893   0.79148   0.97067  -0.08722
C          C       0.82495   0.79636   0.96673  -0.11635
C          C       0.76204   0.75721   0.99271  -0.09556
C          C       0.80353   0.71371   0.02423  -0.10486
C          C       0.90729   0.70979   0.02981  -0.05914
C          C       0.10790   0.61738   0.95550   0.58865
C          C       0.07178   0.88093   0.06828   0.57926
C          C       0.99209   0.83348   0.94014   0.58890
C          C       0.94658   0.66685   0.06868   0.58625
C          C       0.87569   0.41190   0.69933   0.05410
C          C       0.91130   0.48011   0.69949  -0.07804
C          C       0.94331   0.49280   0.64674  -0.11104
C          C       0.94660   0.43807   0.59419  -0.08856
C          C       0.91528   0.37028   0.59419  -0.08349
C          C       0.87662   0.35757   0.64543  -0.06597
C          C       0.83363   0.39855   0.75380   0.03956
C          C       0.74717   0.43592   0.77910  -0.07729
C          C       0.70630   0.42653   0.83089  -0.11245
C          C       0.74828   0.37751   0.85692  -0.08529
C          C       0.83209   0.33849   0.83147  -0.13506
C          C       0.87610   0.34931   0.78065  -0.11546
C          C       0.92092   0.54097   0.75473   0.58995
C          C       0.83613   0.28434   0.63984   0.58481
C          C       0.69672   0.48606   0.74997   0.61088
C          C       0.97336   0.31145   0.75985   0.62582
C          C       0.89521   0.88680   0.69655   0.05924
C          C       0.88907   0.81837   0.65615  -0.07209
C          C       0.93938   0.80404   0.60192  -0.08858
C          C       0.99057   0.85746   0.58555  -0.10086
C          C       0.99610   0.92529   0.62505  -0.09455
C          C       0.95250   0.93985   0.68112  -0.08056
C          C       0.83672   0.90860   0.75231   0.04392
C          C       0.76494   0.96291   0.75730  -0.10851
C          C       0.71656   0.99373   0.81102  -0.12567
C          C       0.73355   0.96737   0.85911  -0.06925
C          C       0.79854   0.91013   0.85330  -0.12806
C          C       0.85222   0.88145   0.80098  -0.09316
C          C       0.82647   0.75874   0.66625   0.59165
C          C       0.97358   0.01217   0.72337   0.59876
C          C       0.72952   0.98461   0.70435   0.58668
C          C       0.93026   0.82532   0.80128   0.60320
C          C       0.41838   0.74835   0.51505   0.04856
C          C       0.35877   0.68647   0.49785  -0.06168
C          C       0.25894   0.68823   0.51607  -0.09728
C          C       0.21356   0.75152   0.54725  -0.09962
C          C       0.26935   0.81422   0.56044  -0.13195
C          C       0.37134   0.81245   0.54657  -0.08057
C          C       0.52809   0.74804   0.50285   0.04086
C          C       0.57107   0.79148   0.47067  -0.08731
C          C       0.67505   0.79636   0.46673  -0.11618
C          C       0.73796   0.75721   0.49270  -0.09571
C          C       0.69647   0.71371   0.52424  -0.10499
C          C       0.59271   0.70979   0.52981  -0.05921
C          C       0.39210   0.61738   0.45550   0.58857
C          C       0.42822   0.88093   0.56829   0.57928
C          C       0.50791   0.83348   0.44014   0.58892
C          C       0.55342   0.66685   0.56868   0.58648
C          C       0.62431   0.41190   0.19933   0.05413
C          C       0.58870   0.48011   0.19949  -0.07815
C          C       0.55669   0.49280   0.14673  -0.11094
C          C       0.55340   0.43807   0.09419  -0.08862
C          C       0.58472   0.37028   0.09418  -0.08347
C          C       0.62338   0.35757   0.14543  -0.06591
C          C       0.66637   0.39855   0.25380   0.03944
C          C       0.75283   0.43592   0.27909  -0.07721
C          C       0.79370   0.42653   0.33089  -0.11245
C          C       0.75173   0.37751   0.35692  -0.08537
C          C       0.66791   0.33849   0.33147  -0.13512
C          C       0.62390   0.34931   0.28065  -0.11539
C          C       0.57908   0.54097   0.25472   0.59000
C          C       0.66387   0.28433   0.13983   0.58478
C          C       0.80328   0.48606   0.24997   0.61075
C          C       0.52664   0.31145   0.25984   0.62585
C          C       0.60479   0.88680   0.19654   0.05931
C          C       0.61093   0.81837   0.15614  -0.07215
C          C       0.56062   0.80404   0.10192  -0.08867
C          C       0.50944   0.85746   0.08555  -0.10055
C          C       0.50390   0.92529   0.12505  -0.09471
C          C       0.54750   0.93985   0.18111  -0.08060
C          C       0.66328   0.90859   0.25231   0.04388
C          C       0.73506   0.96291   0.25729  -0.10843
C          C       0.78344   0.99373   0.31102  -0.12565
C          C       0.76645   0.96736   0.35911  -0.06927
C          C       0.70146   0.91013   0.35329  -0.12812
C          C       0.64778   0.88145   0.30098  -0.09298
C          C       0.67353   0.75874   0.16625   0.59176
C          C       0.52642   0.01217   0.22337   0.59885
C          C       0.77048   0.98461   0.20434   0.58647
C          C       0.56974   0.82532   0.30128   0.60322
C          C       0.91838   0.25166   0.98496   0.04849
C          C       0.85877   0.31354   0.00215  -0.06136
C          C       0.75894   0.31178   0.98393  -0.09721
C          C       0.71356   0.24848   0.95276  -0.09968
C          C       0.76935   0.18578   0.93957  -0.13205
C          C       0.87134   0.18756   0.95344  -0.08044
C          C       0.02809   0.25197   0.99715   0.04094
C          C       0.07107   0.20852   0.02933  -0.08712
C          C       0.17505   0.20364   0.03327  -0.11627
C          C       0.23796   0.24280   0.00730  -0.09567
C          C       0.19647   0.28630   0.97577  -0.10484
C          C       0.09272   0.29022   0.97019  -0.05918
C          C       0.89210   0.38262   0.04450   0.58824
C          C       0.92822   0.11908   0.93172   0.57948
C          C       0.00791   0.16653   0.05986   0.58890
C          C       0.05342   0.33316   0.93133   0.58652
C          C       0.12431   0.58810   0.30067   0.05423
C          C       0.08870   0.51990   0.30051  -0.07836
C          C       0.05669   0.50720   0.35327  -0.11107
C          C       0.05340   0.56193   0.40581  -0.08866
C          C       0.08473   0.62973   0.40582  -0.08330
C          C       0.12338   0.64243   0.35457  -0.06584
C          C       0.16637   0.60146   0.24621   0.03963
C          C       0.25283   0.56409   0.22091  -0.07759
C          C       0.29370   0.57348   0.16911  -0.11241
C          C       0.25173   0.62249   0.14309  -0.08534
C          C       0.16791   0.66152   0.16854  -0.13500
C          C       0.12390   0.65069   0.21935  -0.11555
C          C       0.07908   0.45904   0.24528   0.59036
C          C       0.16387   0.71567   0.36017   0.58448
C          C       0.30328   0.51394   0.25003   0.61096
C          C       0.02664   0.68856   0.24016   0.62603
C          C       0.10479   0.11320   0.30346   0.05921
C          C       0.11093   0.18163   0.34386  -0.07192
C          C       0.06062   0.19596   0.39808  -0.08861
C          C       0.00943   0.14255   0.41445  -0.10068
C          C       0.00390   0.07471   0.37495  -0.09471
C          C       0.04750   0.06015   0.31889  -0.08057
C          C       0.16328   0.09141   0.24770   0.04390
C          C       0.23506   0.03710   0.24271  -0.10831
C          C       0.28344   0.00627   0.18898  -0.12583
C          C       0.26645   0.03264   0.14089  -0.06927
C          C       0.20146   0.08988   0.14671  -0.12824
C          C       0.14778   0.11855   0.19902  -0.09297
C          C       0.17353   0.24126   0.33375   0.59134
C          C       0.02642   0.98784   0.27663   0.59908
C          C       0.27048   0.01540   0.29566   0.58652
C          C       0.06974   0.17468   0.19872   0.60307
O          O       0.54079   0.38014   0.58304  -0.69308
O          O       0.65233   0.43887   0.54292  -0.59635
O          O       0.60687   0.06312   0.44065  -0.59716
O          O       0.49048   0.12088   0.40315  -0.69670
O          O       0.46461   0.10484   0.55972  -0.60450
O          O       0.57202   0.19764   0.58544  -0.64141
O          O       0.46479   0.39817   0.45434  -0.58973
O          O       0.45553   0.30032   0.37630  -0.67465
O          O       0.43434   0.47101   0.69627  -0.62315
O          O       0.41911   0.39542   0.75159  -0.72337
O          O       0.38430   0.76842   0.89130  -0.61530
O          O       0.25595   0.72145   0.83138  -0.71149
O          O       0.15643   0.54208   0.80022  -0.67307
O          O       0.19727   0.44836   0.72276  -0.63107
O          O       0.54990   0.64969   0.73742  -0.66671
O          O       0.47451   0.75684   0.75702  -0.70131
O          O       0.24962   0.22587   0.79983  -0.71208
O          O       0.35346   0.30423   0.86021  -0.55575
O          O       0.47496   0.93378   0.79734  -0.69380
O          O       0.49450   0.98315   0.72319  -0.65696
O          O       0.22224   0.94903   0.79153  -0.69034
O          O       0.20084   0.06440   0.84031  -0.63126
O          O       0.52077   0.15856   0.70284  -0.61752
O          O       0.39938   0.23364   0.69131  -0.69984
O          O       0.74247   0.58936   0.64866  -0.83033
O          O       0.34813   0.84793   0.69163  -0.80305
O          O       0.20194   0.89925   0.91766  -0.86880
O          O       0.04079   0.61987   0.91697  -0.69335
O          O       0.15233   0.56114   0.95708  -0.59658
O          O       0.10688   0.93689   0.05935  -0.59691
O          O       0.99048   0.87913   0.09685  -0.69656
O          O       0.96461   0.89517   0.94028  -0.60407
O          O       0.07202   0.80236   0.91456  -0.64180
O          O       0.96478   0.60183   0.04566  -0.59000
O          O       0.95552   0.69968   0.12370  -0.67444
O          O       0.93434   0.52900   0.80373  -0.62276
O          O       0.91911   0.60458   0.74841  -0.72297
O          O       0.88430   0.23159   0.60870  -0.61592
O          O       0.75594   0.27855   0.66863  -0.71124
O          O       0.65643   0.45793   0.69979  -0.67360
O          O       0.69727   0.55164   0.77725  -0.63064
O          O       0.04990   0.35031   0.76259  -0.66647
O          O       0.97451   0.24316   0.74298  -0.70174
O          O       0.74962   0.77414   0.70018  -0.71184
O          O       0.85346   0.69578   0.63980  -0.55640
O          O       0.97496   0.06623   0.70267  -0.69368
O          O       0.99450   0.01686   0.77682  -0.65646
O          O       0.72224   0.05098   0.70848  -0.68993
O          O       0.70084   0.93561   0.65970  -0.63204
O          O       0.02077   0.84145   0.79716  -0.61755
O          O       0.89938   0.76637   0.80869  -0.70001
O          O       0.24247   0.41064   0.85135  -0.83024
O          O       0.84813   0.15208   0.80838  -0.80320
O          O       0.70194   0.10075   0.58234  -0.86874
O          O       0.45921   0.61987   0.41697  -0.69329
O          O       0.34767   0.56114   0.45708  -0.59658
O          O       0.39313   0.93689   0.55935  -0.59694
O          O       0.50952   0.87913   0.59686  -0.69650
O          O       0.53539   0.89517   0.44028  -0.60416
O          O       0.42798   0.80236   0.41456  -0.64180
O          O       0.53521   0.60184   0.54566  -0.59021
O          O       0.54447   0.69968   0.62371  -0.67434
O          O       0.56566   0.52900   0.30373  -0.62288
O          O       0.58089   0.60458   0.24841  -0.72292
O          O       0.61570   0.23159   0.10870  -0.61576
O          O       0.74405   0.27855   0.16863  -0.71135
O          O       0.84357   0.45793   0.19979  -0.67339
O          O       0.80273   0.55164   0.27725  -0.63071
O          O       0.45010   0.35031   0.26259  -0.66645
O          O       0.52549   0.24316   0.24298  -0.70171
O          O       0.75038   0.77413   0.20018  -0.71200
O          O       0.64654   0.69578   0.13980  -0.55635
O          O       0.52504   0.06623   0.20267  -0.69361
O          O       0.50550   0.01686   0.27682  -0.65666
O          O       0.77776   0.05098   0.20848  -0.68994
O          O       0.79916   0.93561   0.15970  -0.63177
O          O       0.47923   0.84145   0.29716  -0.61758
O          O       0.60062   0.76637   0.30869  -0.70000
O          O       0.25753   0.41064   0.35135  -0.83035
O          O       0.65187   0.15208   0.30837  -0.80304
O          O       0.79806   0.10075   0.08234  -0.86881
O          O       0.95921   0.38014   0.08304  -0.69318
O          O       0.84767   0.43887   0.04292  -0.59630
O          O       0.89313   0.06312   0.94065  -0.59714
O          O       0.00952   0.12088   0.90315  -0.69681
O          O       0.03539   0.10484   0.05972  -0.60447
O          O       0.92798   0.19764   0.08544  -0.64157
O          O       0.03522   0.39817   0.95434  -0.58967
O          O       0.04448   0.30032   0.87630  -0.67489
O          O       0.06566   0.47101   0.19627  -0.62296
O          O       0.08089   0.39542   0.25159  -0.72333
O          O       0.11570   0.76842   0.39130  -0.61536
O          O       0.24406   0.72145   0.33137  -0.71124
O          O       0.34357   0.54207   0.30022  -0.67333
O          O       0.30273   0.44836   0.22275  -0.63104
O          O       0.95010   0.64969   0.23742  -0.66678
O          O       0.02549   0.75684   0.25702  -0.70140
O          O       0.25038   0.22587   0.29982  -0.71197
O          O       0.14654   0.30423   0.36020  -0.55591
O          O       0.02504   0.93378   0.29734  -0.69386
O          O       0.00550   0.98315   0.22318  -0.65681
O          O       0.27776   0.94903   0.29152  -0.69031
O          O       0.29916   0.06440   0.34030  -0.63142
O          O       0.97923   0.15856   0.20284  -0.61747
O          O       0.10062   0.23364   0.19131  -0.69978
O          O       0.75753   0.58936   0.14866  -0.83029
O          O       0.15188   0.84793   0.19163  -0.80310
O          O       0.29806   0.89925   0.41766  -0.86877

