data_crystal

_audit_creation_method 'AiiDA-DDEC plugin'

_cell_length_a         6.70731
_cell_length_b        11.04963
_cell_length_c        18.58607

_cell_angle_alpha     89.84930
_cell_angle_beta     89.97622
_cell_angle_gamma     90.07697

_symmetry_space_group_name_Hall 'P 1'
_symmetry_space_group_name_H-M  'P 1'

loop_
_symmetry_equiv_pos_as_xyz
 'x,y,z'

loop_
_atom_site_label
_atom_site_type_symbol
_atom_site_fract_x
_atom_site_fract_y
_atom_site_fract_z
_atom_site_charge
Ca         Ca      0.25000   0.58330   0.00283   1.47126
Ca         Ca      0.75040   0.91723   0.50201   1.47234
Ca         Ca      0.75000   0.41671   0.99717   1.47125
Ca         Ca      0.24960   0.08278   0.49799   1.47243
H          H       0.56658   0.74206   0.79088   0.13037
H          H       0.56865   0.81737   0.66290   0.10314
H          H       0.43373   0.75928   0.29000   0.12907
H          H       0.43195   0.68172   0.16284   0.10188
H          H       0.06920   0.25795   0.20938   0.13021
H          H       0.06958   0.18257   0.33726   0.10239
H          H       0.93071   0.24072   0.71013   0.13033
H          H       0.92955   0.31830   0.83733   0.10251
H          H       0.43342   0.25795   0.20912   0.13042
H          H       0.43135   0.18264   0.33710   0.10310
H          H       0.56627   0.24073   0.71000   0.12903
H          H       0.56805   0.31828   0.83716   0.10185
H          H       0.93080   0.74206   0.79062   0.13017
H          H       0.93042   0.81743   0.66274   0.10243
H          H       0.06929   0.75928   0.28987   0.13028
H          H       0.07045   0.68171   0.16267   0.10249
C          C       0.42977   0.75817   0.76145  -0.10023
C          C       0.43001   0.79923   0.69067  -0.09919
C          C       0.57061   0.74259   0.26072  -0.09692
C          C       0.57065   0.70008   0.19039  -0.09719
C          C       0.93203   0.24185   0.23866  -0.10210
C          C       0.93137   0.20077   0.30939  -0.09591
C          C       0.06761   0.25741   0.73938  -0.09862
C          C       0.06804   0.29991   0.80969  -0.09775
C          C       0.57023   0.24183   0.23855  -0.10026
C          C       0.56999   0.20077   0.30933  -0.09920
C          C       0.42939   0.25741   0.73928  -0.09686
C          C       0.42935   0.29992   0.80961  -0.09720
C          C       0.06797   0.75816   0.76134  -0.10215
C          C       0.06863   0.79924   0.69061  -0.09589
C          C       0.93239   0.74259   0.26062  -0.09862
C          C       0.93196   0.70009   0.19031  -0.09761
C          C       0.24795   0.69651   0.87419   0.54736
C          C       0.24864   0.73844   0.79712   0.00093
C          C       0.24952   0.82071   0.65487  -0.04963
C          C       0.24837   0.87533   0.58166   0.61778
C          C       0.75215   0.80635   0.37274   0.54832
C          C       0.75161   0.76304   0.29615  -0.00313
C          C       0.75123   0.67780   0.15477  -0.05204
C          C       0.75160   0.62233   0.08189   0.61835
C          C       0.75205   0.30349   0.12581   0.54741
C          C       0.75136   0.26156   0.20288   0.00088
C          C       0.75047   0.17929   0.34512  -0.04966
C          C       0.75163   0.12468   0.41834   0.61813
C          C       0.24785   0.19365   0.62726   0.54832
C          C       0.24839   0.23696   0.70385  -0.00321
C          C       0.24877   0.32220   0.84523  -0.05194
C          C       0.24840   0.37768   0.91811   0.61821
O          O       0.08085   0.67850   0.90553  -0.63708
O          O       0.08072   0.90353   0.55258  -0.69089
O          O       0.91926   0.82466   0.40392  -0.63857
O          O       0.91835   0.59426   0.05207  -0.68925
O          O       0.58506   0.32149   0.09441  -0.64061
O          O       0.58615   0.09728   0.44956  -0.68887
O          O       0.41493   0.17525   0.59602  -0.64015
O          O       0.41452   0.40565   0.94847  -0.68819
O          O       0.91915   0.32151   0.09447  -0.63706
O          O       0.91928   0.09648   0.44741  -0.69113
O          O       0.08074   0.17534   0.59608  -0.63856
O          O       0.08165   0.40574   0.94793  -0.68919
O          O       0.41494   0.67852   0.90559  -0.64062
O          O       0.41385   0.90273   0.55043  -0.68876
O          O       0.58507   0.82476   0.40398  -0.64021
O          O       0.58548   0.59435   0.05153  -0.68823

