data_crystal

_audit_creation_method 'AiiDA-DDEC plugin'

_cell_length_a         6.63260
_cell_length_b        14.74121
_cell_length_c        15.15103

_cell_angle_alpha     90.01004
_cell_angle_beta     89.74270
_cell_angle_gamma     90.03937

_symmetry_space_group_name_Hall 'P 1'
_symmetry_space_group_name_H-M  'P 1'

loop_
_symmetry_equiv_pos_as_xyz
 'x,y,z'

loop_
_atom_site_label
_atom_site_type_symbol
_atom_site_fract_x
_atom_site_fract_y
_atom_site_fract_z
_atom_site_charge
Sr         Sr      0.85174   0.19349   0.54257   1.51500
Sr         Sr      0.64514   0.80633   0.04182   1.51381
Sr         Sr      0.14647   0.69399   0.95678   1.51551
Sr         Sr      0.35332   0.30669   0.45727   1.51426
H          H       0.84145   0.33556   0.24654   0.11814
H          H       0.88773   0.45379   0.12940   0.11483
H          H       0.88006   0.49888   0.51969   0.11791
H          H       0.89102   0.66101   0.56096   0.10623
H          H       0.89469   0.78022   0.44427   0.10702
H          H       0.88755   0.73647   0.28627   0.11249
H          H       0.65749   0.66405   0.74677   0.11773
H          H       0.61028   0.54595   0.62976   0.11494
H          H       0.62128   0.50038   0.01988   0.11828
H          H       0.61044   0.33821   0.06109   0.10655
H          H       0.60452   0.21913   0.94431   0.10766
H          H       0.60946   0.26289   0.78638   0.11257
H          H       0.15575   0.83611   0.25253   0.11760
H          H       0.11126   0.95402   0.36999   0.11465
H          H       0.11960   0.00040   0.97997   0.11794
H          H       0.10985   0.16263   0.93917   0.10689
H          H       0.10529   0.28146   0.05627   0.10726
H          H       0.11133   0.23727   0.21410   0.11272
H          H       0.33977   0.16501   0.75317   0.11772
H          H       0.38876   0.04705   0.87019   0.11503
H          H       0.37871   0.00114   0.48021   0.11796
H          H       0.39022   0.83896   0.43913   0.10660
H          H       0.39508   0.71996   0.55601   0.10699
H          H       0.38989   0.76397   0.71396   0.11247
C          C       0.85491   0.35513   0.41828   0.60879
C          C       0.90027   0.62980   0.14323   0.62499
C          C       0.86227   0.43059   0.35281  -0.10297
C          C       0.85735   0.40672   0.26431  -0.11201
C          C       0.87912   0.47318   0.19856  -0.10382
C          C       0.88829   0.56468   0.21985  -0.06704
C          C       0.88361   0.59238   0.31069   0.05544
C          C       0.87894   0.52365   0.37858   0.04749
C          C       0.88213   0.55078   0.46877  -0.14442
C          C       0.88851   0.64135   0.49171  -0.09092
C          C       0.89132   0.70893   0.42547  -0.08783
C          C       0.88908   0.68496   0.33739  -0.13948
C          C       0.64526   0.64451   0.91847   0.60571
C          C       0.59545   0.37049   0.64333   0.62183
C          C       0.63777   0.56888   0.85311  -0.09916
C          C       0.64189   0.59290   0.76462  -0.11292
C          C       0.61906   0.52660   0.69891  -0.10514
C          C       0.60901   0.43513   0.72010  -0.06413
C          C       0.61455   0.40712   0.81083   0.05643
C          C       0.62068   0.47575   0.87880   0.04471
C          C       0.61819   0.44849   0.96896  -0.14537
C          C       0.61180   0.35791   0.99185  -0.08987
C          C       0.60777   0.29043   0.92552  -0.08800
C          C       0.60888   0.31447   0.83745  -0.14010
C          C       0.14263   0.85632   0.08041   0.60923
C          C       0.09950   0.12989   0.35662   0.62456
C          C       0.13536   0.93148   0.14639  -0.09978
C          C       0.14026   0.90729   0.23482  -0.11256
C          C       0.11930   0.97354   0.30083  -0.10447
C          C       0.11047   0.06509   0.27986  -0.06466
C          C       0.11482   0.09320   0.18919   0.05539
C          C       0.11935   0.02472   0.12107   0.04584
C          C       0.11701   0.05217   0.03102  -0.14523
C          C       0.11136   0.14279   0.00836  -0.08961
C          C       0.10814   0.21012   0.07484  -0.08817
C          C       0.10975   0.18590   0.16285  -0.13992
C          C       0.35230   0.14501   0.58148   0.60738
C          C       0.40460   0.87183   0.85685   0.61980
C          C       0.36049   0.06968   0.64700  -0.10067
C          C       0.35613   0.09386   0.73541  -0.11108
C          C       0.37954   0.02767   0.80110  -0.10559
C          C       0.38984   0.93619   0.77995  -0.06477
C          C       0.38430   0.90805   0.68930   0.05370
C          C       0.37822   0.97659   0.62131   0.04730
C          C       0.38129   0.94929   0.53116  -0.14515
C          C       0.38802   0.85870   0.50836  -0.08992
C          C       0.39165   0.79127   0.57472  -0.08881
C          C       0.39031   0.81540   0.66277  -0.13892
O          O       0.99038   0.35015   0.47790  -0.67029
O          O       0.71596   0.29536   0.41080  -0.67495
O          O      -0.00054   0.60345   0.07575  -0.66533
O          O       0.80773   0.70543   0.14830  -0.67029
O          O       0.50808   0.64995   0.97791  -0.66856
O          O       0.78526   0.70396   0.91079  -0.67413
O          O       0.49655   0.39752   0.57635  -0.66230
O          O       0.68684   0.29455   0.64793  -0.67075
O          O       0.00540   0.85068   0.02172  -0.66866
O          O       0.28332   0.79728   0.08649  -0.67699
O          O       0.00104   0.10337   0.42422  -0.66490
O          O       0.19205   0.20558   0.35143  -0.67030
O          O       0.48857   0.15013   0.52170  -0.66969
O          O       0.21259   0.20442   0.58911  -0.67483
O          O       0.50390   0.89963   0.92344  -0.65755
O          O       0.31384   0.79553   0.85257  -0.67334

