data_crystal

_audit_creation_method 'AiiDA-DDEC plugin'

_cell_length_a        12.46401
_cell_length_b        12.72939
_cell_length_c        12.71491

_cell_angle_alpha     76.11182
_cell_angle_beta     60.64598
_cell_angle_gamma     60.68160

_symmetry_space_group_name_Hall 'P 1'
_symmetry_space_group_name_H-M  'P 1'

loop_
_symmetry_equiv_pos_as_xyz
 'x,y,z'

loop_
_atom_site_label
_atom_site_type_symbol
_atom_site_fract_x
_atom_site_fract_y
_atom_site_fract_z
_atom_site_charge
In         In      0.06428   0.87122   0.50017   1.60327
In         In      0.43552   0.12885   0.50017   1.60312
In         In      0.68611  -0.00012   0.62795   1.60627
In         In      0.31399  -0.00012   0.37211   1.60570
H          H       0.01195   0.94130   0.18602   0.11792
H          H       0.13918   0.05886   0.81403   0.12159
H          H       0.70342   0.68584   0.55864   0.12156
H          H       0.94790   0.31430   0.44112   0.12139
H          H       0.73795   0.31421   0.55867   0.12168
H          H       0.61091   0.68575   0.44115   0.12150
H          H       0.04670   0.94132   0.81393   0.11834
H          H       0.80203   0.05888   0.18592   0.12140
H          H       0.87536   0.06527   0.43450   0.41441
H          H       0.37521   0.93472   0.56550   0.41393
H          H       0.68993   0.93504   0.43427   0.41448
H          H       0.05940   0.06562   0.56526   0.41423
H          H       0.37380  -0.00019  -0.00021   0.14379
H          H       0.12367   0.49968   0.50006   0.14328
H          H       0.37625   0.50020   0.50021   0.14330
H          H       0.62625  -0.00007   0.00036   0.14384
C          C       0.19129   0.97179   0.10533  -0.03145
C          C       0.08084   0.96882   0.10431  -0.13122
C          C       0.20566   0.94750   0.22024   0.60879
C          C       0.26835   0.02819   0.89465  -0.03234
C          C       0.15388   0.03125   0.89573  -0.13279
C          C       0.37330   0.05244   0.77975   0.61010
C          C       0.91333   0.60515   0.52787  -0.03118
C          C       0.79976   0.60419   0.53113  -0.13142
C          C       0.90421   0.71974   0.55145   0.60702
C          C       0.04637   0.39474   0.47199  -0.03153
C          C       0.93504   0.39586   0.46877  -0.13119
C          C       0.17535   0.28013   0.44834   0.60907
C          C       0.55878   0.39483   0.52797  -0.03101
C          C       0.66912   0.39582   0.53114  -0.13159
C          C       0.54427   0.28025   0.55171   0.60750
C          C       0.48159   0.60524   0.47208  -0.03152
C          C       0.59616   0.60415   0.46878  -0.13109
C          C       0.37615   0.71985   0.44858   0.60854
C          C       0.83684   0.97186   0.89473  -0.03240
C          C       0.95033   0.96882   0.89569  -0.13037
C          C       0.84669   0.94759   0.77986   0.60908
C          C       0.70342   0.02826   0.10541  -0.03260
C          C       0.81490   0.03125   0.10427  -0.13330
C          C       0.57423   0.05254   0.22035   0.60976
C          C       0.28647  -0.00009  -0.00006  -0.09790
C          C       0.05958  -0.00007  -0.00003   0.06449
C          C       0.03645   0.49989   0.49994  -0.09846
C          C       0.80955   0.50006   0.49991   0.06220
C          C       0.46355   0.50008   0.50010  -0.09916
C          C       0.69043   0.50003   0.50005   0.06227
C          C       0.71351   0.00005   0.00014  -0.09744
C          C       0.94046   0.00007  -0.00006   0.06494
O          O       0.14925   0.88497   0.30029  -0.58611
O          O       0.27234   0.99469   0.22691  -0.56591
O          O       0.33425   0.11525   0.69980  -0.58686
O          O       0.49383   0.00526   0.77294  -0.56613
O          O       0.78538   0.80024   0.61353  -0.58859
O          O       0.01846   0.72568   0.50435  -0.56312
O          O       0.19898   0.19964   0.38637  -0.58959
O          O       0.24847   0.27419   0.49541  -0.56426
O          O       0.60130   0.19968   0.61350  -0.58864
O          O       0.47685   0.27442   0.50479  -0.56391
O          O       0.41457   0.80029   0.38634  -0.58892
O          O       0.25595   0.72589   0.49578  -0.56384
O          O       0.96565   0.88485   0.69986  -0.58581
O          O       0.73288   0.99472   0.77315  -0.56584
O          O       0.55058   0.11515   0.30035  -0.58643
O          O       0.50092   0.00529   0.22711  -0.56671
O          O       0.87519   0.00381   0.49662  -0.95463
O          O       0.37532   0.99639   0.50358  -0.95417
O          O       0.62802   0.99607   0.49682  -0.95480
O          O       0.12129   0.00337   0.50392  -0.95453

