data_crystal

_audit_creation_method 'AiiDA-DDEC plugin'

_cell_length_a        16.12843
_cell_length_b        16.52360
_cell_length_c        19.41676

_cell_angle_alpha     90.00000
_cell_angle_beta     90.00000
_cell_angle_gamma     89.97410

_symmetry_space_group_name_Hall 'P 1'
_symmetry_space_group_name_H-M  'P 1'

loop_
_symmetry_equiv_pos_as_xyz
 'x,y,z'

loop_
_atom_site_label
_atom_site_type_symbol
_atom_site_fract_x
_atom_site_fract_y
_atom_site_fract_z
_atom_site_charge
In         In      0.53140   0.26312   0.01856   1.38719
In         In      0.27523   0.93028   0.81626   1.31685
In         In      0.96859   0.23688   0.01856   1.38708
In         In      0.22476   0.56972   0.81626   1.31677
In         In      0.46881   0.76333   0.48147   1.38704
In         In      0.72485   0.43003   0.68413   1.31725
In         In      0.03118   0.73667   0.48147   1.38701
In         In      0.77515   0.06997   0.68413   1.31726
In         In      0.46859   0.73688   0.98144   1.38719
In         In      0.72476   0.06972   0.18374   1.31676
In         In      0.03140   0.76312   0.98144   1.38712
In         In      0.77523   0.43028   0.18374   1.31679
In         In      0.53118   0.23667   0.51853   1.38701
In         In      0.27515   0.56997   0.31587   1.31723
In         In      0.96881   0.26333   0.51853   1.38696
In         In      0.22485   0.93003   0.31587   1.31733
H          H       0.20035   0.95063   0.07756   0.15489
H          H       0.29131   0.06808   0.10794   0.12932
H          H       0.39503   0.05548   0.90377   0.11620
H          H       0.01608   0.04064   0.69061   0.13931
H          H       0.95684   0.12985   0.78416   0.12596
H          H       0.16990   0.07084   0.90806   0.09862
H          H       0.41872   0.09758   0.59979   0.11742
H          H       0.57090   0.23844   0.78446   0.15142
H          H       0.46675   0.13318   0.81645   0.13772
H          H       0.29964   0.54937   0.07756   0.15481
H          H       0.20869   0.43192   0.10794   0.12925
H          H       0.10497   0.44452   0.90377   0.11629
H          H       0.48392   0.45936   0.69061   0.13923
H          H       0.54316   0.37015   0.78416   0.12581
H          H       0.33010   0.42916   0.90806   0.09864
H          H       0.08127   0.40242   0.59979   0.11741
H          H       0.92909   0.26156   0.78446   0.15157
H          H       0.03324   0.36682   0.81645   0.13770
H          H       0.79918   0.45061   0.42269   0.15561
H          H       0.70811   0.56806   0.39228   0.12893
H          H       0.60525   0.55580   0.59698   0.11674
H          H       0.98378   0.54113   0.80904   0.13932
H          H       0.04324   0.62980   0.71498   0.12543
H          H       0.83001   0.57068   0.59144   0.09846
H          H       0.58123   0.59773   0.90033   0.11715
H          H       0.42907   0.73854   0.71548   0.15221
H          H       0.53335   0.63340   0.68351   0.13793
H          H       0.70081   0.04939   0.42269   0.15573
H          H       0.79188   0.93195   0.39228   0.12885
H          H       0.89474   0.94420   0.59698   0.11643
H          H       0.51621   0.95887   0.80904   0.13952
H          H       0.45676   0.87020   0.71498   0.12571
H          H       0.66998   0.92933   0.59144   0.09826
H          H       0.91876   0.90227   0.90033   0.11734
H          H       0.07092   0.76146   0.71548   0.15211
H          H       0.96664   0.86661   0.68351   0.13790
H          H       0.79964   0.04937   0.92244   0.15480
H          H       0.70868   0.93192   0.89206   0.12930
H          H       0.60496   0.94452   0.09623   0.11636
H          H       0.98391   0.95936   0.30939   0.13917
H          H       0.04316   0.87015   0.21584   0.12574
H          H       0.83010   0.92917   0.09194   0.09872
H          H       0.58127   0.90242   0.40020   0.11724
H          H       0.42909   0.76156   0.21554   0.15157
H          H       0.53324   0.86682   0.18355   0.13773
H          H       0.70035   0.45063   0.92244   0.15490
H          H       0.79130   0.56809   0.89206   0.12947
H          H       0.89503   0.55548   0.09623   0.11609
H          H       0.51608   0.54064   0.30939   0.13933
H          H       0.45684   0.62985   0.21584   0.12600
H          H       0.66989   0.57084   0.09194   0.09861
H          H       0.91872   0.59758   0.40020   0.11745
H          H       0.07090   0.73844   0.21554   0.15150
H          H       0.96675   0.63318   0.18355   0.13778
H          H       0.20081   0.54939   0.57731   0.15573
H          H       0.29188   0.43194   0.60772   0.12886
H          H       0.39474   0.44420   0.40302   0.11661
H          H       0.01621   0.45887   0.19096   0.13947
H          H       0.95676   0.37020   0.28502   0.12571
H          H       0.16998   0.42932   0.40856   0.09829
H          H       0.41876   0.40227   0.09967   0.11727
H          H       0.57092   0.26146   0.28452   0.15207
H          H       0.46665   0.36661   0.31649   0.13780
H          H       0.29918   0.95062   0.57731   0.15558
H          H       0.20812   0.06806   0.60772   0.12888
H          H       0.10526   0.05580   0.40302   0.11665
H          H       0.48378   0.04113   0.19096   0.13945
H          H       0.54324   0.12980   0.28502   0.12553
H          H       0.33002   0.07068   0.40856   0.09835
H          H       0.08123   0.09773   0.09967   0.11725
H          H       0.92907   0.23854   0.28452   0.15217
H          H       0.03335   0.13339   0.31649   0.13780
C          C       0.19086   0.87684   0.94887   0.55809
C          C       0.24729   0.94414   0.97368   0.08729
C          C       0.24345   0.97543   0.04014  -0.09401
C          C       0.29521   0.04012   0.05741   0.00370
C          C       0.35232   0.06934   0.00934  -0.05018
C          C       0.35302   0.03444   0.94364   0.08712
C          C       0.40958   0.13808   0.02792   0.55674
C          C       0.14897   0.93844   0.70392   0.51791
C          C       0.12000   0.00547   0.75233   0.10201
C          C       0.04777   0.04946   0.73941  -0.11162
C          C       0.01580   0.09896   0.79112  -0.03781
C          C       0.05870   0.10616   0.85356  -0.05654
C          C       0.13379   0.06496   0.86101   0.08484
C          C       0.02586   0.15445   0.91235   0.54899
C          C       0.37081   0.04389   0.72529   0.55570
C          C       0.43383   0.10843   0.71059  -0.06120
C          C       0.45030   0.12836   0.64182   0.09360
C          C       0.54564   0.22621   0.67572   0.09753
C          C       0.53470   0.20787   0.74508  -0.10220
C          C       0.47693   0.14867   0.76273  -0.02624
C          C       0.60159   0.29340   0.65293   0.56293
C          C       0.30913   0.62317   0.94887   0.55818
C          C       0.25270   0.55586   0.97368   0.08719
C          C       0.25655   0.52458   0.04014  -0.09422
C          C       0.20479   0.45988   0.05741   0.00371
C          C       0.14768   0.43066   0.00934  -0.05012
C          C       0.14697   0.46557   0.94364   0.08712
C          C       0.09041   0.36192   0.02792   0.55667
C          C       0.35102   0.56157   0.70392   0.51761
C          C       0.38000   0.49453   0.75233   0.10195
C          C       0.45222   0.45054   0.73941  -0.11156
C          C       0.48419   0.40104   0.79112  -0.03771
C          C       0.44129   0.39384   0.85356  -0.05673
C          C       0.36621   0.43504   0.86101   0.08493
C          C       0.47413   0.34555   0.91235   0.54943
C          C       0.12919   0.45612   0.72529   0.55576
C          C       0.06617   0.39157   0.71059  -0.06117
C          C       0.04969   0.37164   0.64182   0.09338
C          C       0.95435   0.27379   0.67572   0.09763
C          C       0.96529   0.29213   0.74508  -0.10239
C          C       0.02306   0.35133   0.76273  -0.02633
C          C       0.89840   0.20661   0.65293   0.56291
C          C       0.80902   0.37677   0.55136   0.55847
C          C       0.75246   0.44412   0.52663   0.08624
C          C       0.75610   0.47548   0.46015  -0.09353
C          C       0.70431   0.54031   0.44295   0.00299
C          C       0.64764   0.56991   0.49130  -0.05128
C          C       0.64707   0.53474   0.55696   0.08755
C          C       0.59015   0.63887   0.47344   0.55703
C          C       0.85082   0.43983   0.79631   0.51672
C          C       0.87972   0.50618   0.74741   0.10425
C          C       0.95209   0.54995   0.76024  -0.11251
C          C       0.98416   0.59904   0.70838  -0.03712
C          C       0.94110   0.60596   0.64600  -0.05702
C          C       0.86598   0.56496   0.63857   0.08494
C          C       0.97422   0.65388   0.58727   0.55081
C          C       0.62912   0.54377   0.77498   0.55691
C          C       0.56618   0.60852   0.78948  -0.06227
C          C       0.54965   0.62849   0.85826   0.09498
C          C       0.45426   0.72636   0.82423   0.09778
C          C       0.46530   0.70800   0.75489  -0.10254
C          C       0.52315   0.64878   0.73727  -0.02494
C          C       0.39831   0.79362   0.84697   0.56257
C          C       0.69097   0.12323   0.55136   0.55845
C          C       0.74753   0.05588   0.52663   0.08628
C          C       0.74389   0.02452   0.46015  -0.09325
C          C       0.79568   0.95969   0.44295   0.00314
C          C       0.85235   0.93009   0.49130  -0.05137
C          C       0.85292   0.96526   0.55696   0.08748
C          C       0.90984   0.86113   0.47344   0.55725
C          C       0.64918   0.06017   0.79631   0.51637
C          C       0.62027   0.99382   0.74741   0.10464
C          C       0.54790   0.95005   0.76024  -0.11267
C          C       0.51583   0.90097   0.70838  -0.03696
C          C       0.55889   0.89404   0.64600  -0.05705
C          C       0.63401   0.93504   0.63857   0.08485
C          C       0.52577   0.84612   0.58727   0.55087
C          C       0.87087   0.95623   0.77498   0.55640
C          C       0.93381   0.89148   0.78948  -0.06190
C          C       0.95034   0.87151   0.85826   0.09488
C          C       0.04573   0.77365   0.82423   0.09786
C          C       0.03469   0.79201   0.75489  -0.10280
C          C       0.97684   0.85122   0.73727  -0.02492
C          C       0.10168   0.70638   0.84697   0.56267
C          C       0.80913   0.12316   0.05113   0.55822
C          C       0.75270   0.05586   0.02632   0.08724
C          C       0.75655   0.02458   0.95986  -0.09409
C          C       0.70478   0.95988   0.94259   0.00346
C          C       0.64768   0.93067   0.99066  -0.04993
C          C       0.64697   0.96557   0.05636   0.08708
C          C       0.59041   0.86192   0.97208   0.55657
C          C       0.85102   0.06157   0.29608   0.51760
C          C       0.88000   0.99453   0.24767   0.10208
C          C       0.95222   0.95055   0.26059  -0.11181
C          C       0.98419   0.90104   0.20888  -0.03771
C          C       0.94129   0.89384   0.14644  -0.05681
C          C       0.86620   0.93504   0.13899   0.08499
C          C       0.97413   0.84556   0.08765   0.54932
C          C       0.62918   0.95612   0.27471   0.55597
C          C       0.56616   0.89157   0.28941  -0.06129
C          C       0.54969   0.87164   0.35818   0.09355
C          C       0.45435   0.77379   0.32428   0.09766
C          C       0.46529   0.79213   0.25492  -0.10231
C          C       0.52306   0.85133   0.23727  -0.02625
C          C       0.39840   0.70661   0.34707   0.56280
C          C       0.69086   0.37684   0.05113   0.55807
C          C       0.74729   0.44414   0.02632   0.08726
C          C       0.74345   0.47543   0.95986  -0.09388
C          C       0.79521   0.54012   0.94259   0.00364
C          C       0.85231   0.56934   0.99066  -0.05038
C          C       0.85302   0.53444   0.05636   0.08717
C          C       0.90958   0.63808   0.97208   0.55691
C          C       0.64897   0.43843   0.29608   0.51780
C          C       0.61999   0.50547   0.24767   0.10203
C          C       0.54777   0.54946   0.26059  -0.11166
C          C       0.51580   0.59896   0.20888  -0.03759
C          C       0.55870   0.60616   0.14644  -0.05655
C          C       0.63378   0.56496   0.13899   0.08483
C          C       0.52586   0.65445   0.08765   0.54910
C          C       0.87080   0.54389   0.27471   0.55555
C          C       0.93383   0.60843   0.28941  -0.06105
C          C       0.95030   0.62836   0.35818   0.09354
C          C       0.04564   0.72621   0.32428   0.09762
C          C       0.03470   0.70787   0.25492  -0.10237
C          C       0.97693   0.64867   0.23727  -0.02629
C          C       0.10159   0.79340   0.34707   0.56285
C          C       0.19097   0.62323   0.44864   0.55843
C          C       0.24753   0.55588   0.47337   0.08625
C          C       0.24389   0.52452   0.53985  -0.09333
C          C       0.29569   0.45969   0.55705   0.00298
C          C       0.35235   0.43009   0.50870  -0.05129
C          C       0.35292   0.46526   0.44304   0.08748
C          C       0.40984   0.36113   0.52656   0.55699
C          C       0.14918   0.56017   0.20368   0.51621
C          C       0.12027   0.49382   0.25258   0.10463
C          C       0.04791   0.45005   0.23976  -0.11260
C          C       0.01583   0.40096   0.29162  -0.03720
C          C       0.05889   0.39404   0.35400  -0.05680
C          C       0.13401   0.43504   0.36143   0.08485
C          C       0.02578   0.34612   0.41272   0.55068
C          C       0.37087   0.45623   0.22502   0.55652
C          C       0.43381   0.39148   0.21052  -0.06201
C          C       0.45034   0.37151   0.14174   0.09500
C          C       0.54573   0.27364   0.17577   0.09780
C          C       0.53469   0.29201   0.24511  -0.10276
C          C       0.47685   0.35122   0.26273  -0.02480
C          C       0.60168   0.20638   0.15303   0.56271
C          C       0.30902   0.87677   0.44864   0.55843
C          C       0.25246   0.94412   0.47337   0.08621
C          C       0.25610   0.97548   0.53985  -0.09355
C          C       0.20431   0.04031   0.55705   0.00317
C          C       0.14765   0.06991   0.50870  -0.05140
C          C       0.14707   0.03474   0.44304   0.08766
C          C       0.09015   0.13887   0.52656   0.55704
C          C       0.35082   0.93983   0.20368   0.51664
C          C       0.37972   0.00618   0.25258   0.10441
C          C       0.45209   0.04995   0.23976  -0.11256
C          C       0.48416   0.09904   0.29162  -0.03707
C          C       0.44111   0.10596   0.35400  -0.05685
C          C       0.36599   0.06496   0.36143   0.08480
C          C       0.47422   0.15388   0.41272   0.55080
C          C       0.12913   0.04377   0.22502   0.55675
C          C       0.06619   0.10852   0.21052  -0.06216
C          C       0.04965   0.12849   0.14174   0.09489
C          C       0.95426   0.22636   0.17577   0.09783
C          C       0.96530   0.20800   0.24511  -0.10268
C          C       0.02315   0.14878   0.26273  -0.02490
C          C       0.89831   0.29362   0.15303   0.56248
N          N       0.30042   0.97476   0.92628  -0.28002
N          N       0.16262   0.01570   0.81164  -0.28542
N          N       0.50477   0.18628   0.62540  -0.26531
N          N       0.19957   0.52524   0.92628  -0.27966
N          N       0.33738   0.48430   0.81164  -0.28529
N          N       0.99522   0.31372   0.62540  -0.26533
N          N       0.69942   0.47474   0.57412  -0.27868
N          N       0.83708   0.51598   0.68810  -0.28700
N          N       0.49515   0.68646   0.87462  -0.26748
N          N       0.80057   0.02526   0.57412  -0.27865
N          N       0.66291   0.98402   0.68810  -0.28747
N          N       0.00485   0.81355   0.87462  -0.26757
N          N       0.69957   0.02524   0.07372  -0.27988
N          N       0.83737   0.98430   0.18836  -0.28509
N          N       0.49522   0.81372   0.37460  -0.26530
N          N       0.80042   0.47476   0.07372  -0.27993
N          N       0.66262   0.51570   0.18836  -0.28568
N          N       0.00477   0.68628   0.37460  -0.26552
N          N       0.30057   0.52527   0.42588  -0.27880
N          N       0.16292   0.48402   0.31190  -0.28738
N          N       0.50485   0.31355   0.12538  -0.26742
N          N       0.19942   0.97474   0.42588  -0.27852
N          N       0.33708   0.01598   0.31190  -0.28721
N          N       0.99515   0.18646   0.12538  -0.26746
O          O       0.19587   0.85408   0.88640  -0.53560
O          O       0.14068   0.84821   0.99331  -0.53457
O          O       0.40036   0.17470   0.08343  -0.53388
O          O       0.46653   0.15556   0.98223  -0.56268
O          O       0.20837   0.89216   0.72631  -0.53853
O          O       0.11162   0.92926   0.64878  -0.48120
O          O       0.96700   0.20444   0.90249  -0.48934
O          O       0.05794   0.14373   0.97235  -0.55697
O          O       0.36644   0.02229   0.78996  -0.59047
O          O       0.32888   0.01571   0.67749  -0.51909
O          O       0.63859   0.33061   0.70155  -0.48694
O          O       0.60777   0.31194   0.58955  -0.53247
O          O       0.30412   0.64592   0.88640  -0.53564
O          O       0.35931   0.65179   0.99331  -0.53469
O          O       0.09963   0.32530   0.08343  -0.53393
O          O       0.03346   0.34444   0.98223  -0.56255
O          O       0.29162   0.60784   0.72631  -0.53808
O          O       0.38837   0.57075   0.64878  -0.48128
O          O       0.53299   0.29556   0.90249  -0.48987
O          O       0.44205   0.35627   0.97235  -0.55682
O          O       0.13355   0.47771   0.78996  -0.59047
O          O       0.17112   0.48429   0.67749  -0.51919
O          O       0.86141   0.16939   0.70155  -0.48677
O          O       0.89222   0.18806   0.58955  -0.53238
O          O       0.80407   0.35390   0.61383  -0.53661
O          O       0.85923   0.34839   0.50684  -0.53324
O          O       0.59565   0.67371   0.41670  -0.53580
O          O       0.53668   0.65884   0.52114  -0.56176
O          O       0.79200   0.39258   0.77416  -0.53806
O          O       0.88790   0.43236   0.85174  -0.47985
O          O       0.03348   0.70320   0.59733  -0.48895
O          O       0.94206   0.64358   0.52726  -0.55870
O          O       0.63336   0.52163   0.71044  -0.59057
O          O       0.67108   0.51574   0.82280  -0.51929
O          O       0.36158   0.83113   0.79835  -0.48675
O          O       0.39198   0.81202   0.91034  -0.53238
O          O       0.69592   0.14610   0.61383  -0.53649
O          O       0.64076   0.15161   0.50684  -0.53312
O          O       0.90434   0.82629   0.41670  -0.53572
O          O       0.96331   0.84116   0.52114  -0.56222
O          O       0.70799   0.10742   0.77416  -0.53815
O          O       0.61209   0.06764   0.85174  -0.47947
O          O       0.46651   0.79680   0.59733  -0.48861
O          O       0.55793   0.85642   0.52726  -0.55900
O          O       0.86663   0.97837   0.71044  -0.59053
O          O       0.82890   0.98426   0.82280  -0.51869
O          O       0.13841   0.66887   0.79835  -0.48690
O          O       0.10801   0.68798   0.91034  -0.53256
O          O       0.80412   0.14592   0.11360  -0.53573
O          O       0.85931   0.15179   0.00669  -0.53466
O          O       0.59963   0.82531   0.91657  -0.53390
O          O       0.53346   0.84444   0.01777  -0.56242
O          O       0.79162   0.10784   0.27369  -0.53808
O          O       0.88837   0.07075   0.35122  -0.48133
O          O       0.03299   0.79556   0.09751  -0.48998
O          O       0.94205   0.85627   0.02765  -0.55663
O          O       0.63355   0.97771   0.21003  -0.59045
O          O       0.67111   0.98429   0.32251  -0.51945
O          O       0.36141   0.66939   0.29845  -0.48670
O          O       0.39222   0.68807   0.41045  -0.53240
O          O       0.69587   0.35408   0.11360  -0.53563
O          O       0.64068   0.34821   0.00669  -0.53451
O          O       0.90036   0.67470   0.91657  -0.53377
O          O       0.96653   0.65556   0.01777  -0.56294
O          O       0.70837   0.39216   0.27369  -0.53847
O          O       0.61162   0.42925   0.35122  -0.48122
O          O       0.46700   0.70444   0.09751  -0.48929
O          O       0.55794   0.64373   0.02765  -0.55707
O          O       0.86644   0.52229   0.21003  -0.59033
O          O       0.82888   0.51571   0.32251  -0.51901
O          O       0.13859   0.83061   0.29845  -0.48684
O          O       0.10777   0.81194   0.41045  -0.53252
O          O       0.19592   0.64610   0.38617  -0.53637
O          O       0.14076   0.65161   0.49316  -0.53319
O          O       0.40434   0.32629   0.58330  -0.53574
O          O       0.46331   0.34116   0.47886  -0.56187
O          O       0.20799   0.60742   0.22584  -0.53805
O          O       0.11209   0.56764   0.14826  -0.47935
O          O       0.96651   0.29680   0.40267  -0.48869
O          O       0.05793   0.35642   0.47274  -0.55893
O          O       0.36663   0.47837   0.28956  -0.59061
O          O       0.32891   0.48426   0.17720  -0.51886
O          O       0.63841   0.16887   0.20165  -0.48696
O          O       0.60801   0.18798   0.08966  -0.53253
O          O       0.30407   0.85390   0.38617  -0.53652
O          O       0.35923   0.84839   0.49316  -0.53332
O          O       0.09566   0.17371   0.58330  -0.53583
O          O       0.03668   0.15884   0.47886  -0.56181
O          O       0.29200   0.89258   0.22584  -0.53805
O          O       0.38790   0.93236   0.14826  -0.47974
O          O       0.53348   0.20320   0.40267  -0.48887
O          O       0.44206   0.14358   0.47274  -0.55879
O          O       0.13337   0.02163   0.28956  -0.59060
O          O       0.17109   0.01574   0.17720  -0.51903
O          O       0.86158   0.33113   0.20165  -0.48676
O          O       0.89198   0.31202   0.08966  -0.53230

